<?xml version="1.0" encoding="UTF-8"?>

<!-- generated on 09/26/18 10:16:19 by Eclipse SUMO netedit Version 1.0.0
<configuration xmlns:xsi="http://www.w3.org/2001/XMLSchema-instance" xsi:noNamespaceSchemaLocation="http://sumo.dlr.de/xsd/netconvertConfiguration.xsd">

    <input>
        <sumo-net-file value="C:\Users\isaia\OneDrive\Documents\GitHub\SeniorResearch\SUMO_files\RealWorldSystems\DCSmallNetwork\DCsmall.net.xml"/>
    </input>

    <output>
        <output-file value="C:\Users\isaia\OneDrive\Documents\GitHub\SeniorResearch\SUMO_files\RealWorldSystems\DCSmallNetwork\DCsmall.net.xml"/>
        <output.street-names value="true"/>
    </output>

    <processing>
        <offset.disable-normalization value="true"/>
        <lefthand value="false"/>
    </processing>

    <junctions>
        <no-turnarounds value="true"/>
        <junctions.corner-detail value="5"/>
        <junctions.limit-turn-speed value="5.5"/>
        <rectangular-lane-cut value="false"/>
    </junctions>

    <pedestrian>
        <walkingareas value="false"/>
    </pedestrian>

    <visualisation>
        <registry-viewport value="true"/>
    </visualisation>

</configuration>
-->

<net version="1.0" junctionCornerDetail="5" limitTurnSpeed="5.50" xmlns:xsi="http://www.w3.org/2001/XMLSchema-instance" xsi:noNamespaceSchemaLocation="http://sumo.dlr.de/xsd/net_file.xsd">

    <location netOffset="-327272.70,-4306181.72" convBoundary="0.00,0.00,1243.31,489.66" origBoundary="-76.991544,38.887593,-76.977256,38.892006" projParameter="+proj=utm +zone=18 +ellps=WGS84 +datum=WGS84 +units=m +no_defs"/>

    <type id="highway.bridleway" priority="1" numLanes="1" speed="2.78" allow="pedestrian" oneway="1" width="2.00"/>
    <type id="highway.bus_guideway" priority="1" numLanes="1" speed="27.78" allow="bus" oneway="1"/>
    <type id="highway.cycleway" priority="1" numLanes="1" speed="8.33" allow="bicycle" oneway="0" width="1.00"/>
    <type id="highway.footway" priority="1" numLanes="1" speed="2.78" allow="pedestrian" oneway="1" width="2.00"/>
    <type id="highway.ford" priority="1" numLanes="1" speed="2.78" allow="army" oneway="0"/>
    <type id="highway.living_street" priority="3" numLanes="1" speed="2.78" disallow="tram rail_urban rail rail_electric ship" oneway="0"/>
    <type id="highway.motorway" priority="13" numLanes="2" speed="44.44" allow="private emergency authority army vip passenger hov taxi bus coach delivery truck trailer motorcycle evehicle custom1 custom2" oneway="1"/>
    <type id="highway.motorway_link" priority="12" numLanes="1" speed="22.22" allow="private emergency authority army vip passenger hov taxi bus coach delivery truck trailer motorcycle evehicle custom1 custom2" oneway="1"/>
    <type id="highway.path" priority="1" numLanes="1" speed="2.78" allow="bicycle pedestrian" oneway="1" width="2.00"/>
    <type id="highway.pedestrian" priority="1" numLanes="1" speed="2.78" allow="pedestrian" oneway="1" width="2.00"/>
    <type id="highway.primary" priority="9" numLanes="2" speed="27.78" disallow="tram rail_urban rail rail_electric ship" oneway="0"/>
    <type id="highway.primary_link" priority="8" numLanes="1" speed="22.22" disallow="tram rail_urban rail rail_electric ship" oneway="0"/>
    <type id="highway.raceway" priority="14" numLanes="2" speed="83.33" allow="vip" oneway="0"/>
    <type id="highway.residential" priority="4" numLanes="1" speed="13.89" disallow="tram rail_urban rail rail_electric ship" oneway="0"/>
    <type id="highway.secondary" priority="7" numLanes="2" speed="27.78" disallow="tram rail_urban rail rail_electric ship" oneway="0"/>
    <type id="highway.secondary_link" priority="6" numLanes="1" speed="22.22" disallow="tram rail_urban rail rail_electric ship" oneway="0"/>
    <type id="highway.service" priority="2" numLanes="1" speed="5.56" allow="delivery bicycle pedestrian" oneway="0"/>
    <type id="highway.stairs" priority="1" numLanes="1" speed="1.39" allow="pedestrian" oneway="1" width="2.00"/>
    <type id="highway.step" priority="1" numLanes="1" speed="1.39" allow="pedestrian" oneway="1" width="2.00"/>
    <type id="highway.steps" priority="1" numLanes="1" speed="1.39" allow="pedestrian" oneway="1" width="2.00"/>
    <type id="highway.tertiary" priority="6" numLanes="1" speed="22.22" disallow="tram rail_urban rail rail_electric ship" oneway="0"/>
    <type id="highway.tertiary_link" priority="5" numLanes="1" speed="22.22" disallow="tram rail_urban rail rail_electric ship" oneway="0"/>
    <type id="highway.track" priority="1" numLanes="1" speed="5.56" disallow="tram rail_urban rail rail_electric ship" oneway="0"/>
    <type id="highway.trunk" priority="11" numLanes="2" speed="27.78" disallow="tram rail_urban rail rail_electric bicycle pedestrian ship" oneway="0"/>
    <type id="highway.trunk_link" priority="10" numLanes="1" speed="22.22" disallow="tram rail_urban rail rail_electric bicycle pedestrian ship" oneway="0"/>
    <type id="highway.unclassified" priority="5" numLanes="1" speed="13.89" disallow="tram rail_urban rail rail_electric ship" oneway="0"/>
    <type id="highway.unsurfaced" priority="1" numLanes="1" speed="8.33" disallow="tram rail_urban rail rail_electric ship" oneway="0"/>
    <type id="railway.light_rail" priority="15" numLanes="1" speed="27.78" allow="rail_urban" oneway="1"/>
    <type id="railway.preserved" priority="15" numLanes="1" speed="27.78" allow="rail" oneway="1"/>
    <type id="railway.rail" priority="15" numLanes="1" speed="83.33" allow="rail rail_electric" oneway="1"/>
    <type id="railway.subway" priority="15" numLanes="1" speed="27.78" allow="rail_urban" oneway="1"/>
    <type id="railway.tram" priority="15" numLanes="1" speed="13.89" allow="tram" oneway="1"/>

    <edge id=":130714951-AddedOnRampNode_0" function="internal">
        <lane id=":130714951-AddedOnRampNode_0_0" index="0" disallow="tram rail_urban rail rail_electric ship" speed="27.78" length="8.00" shape="135.56,313.67 127.56,313.81"/>
        <lane id=":130714951-AddedOnRampNode_0_1" index="1" disallow="tram rail_urban rail rail_electric ship" speed="27.78" length="8.00" shape="135.50,310.47 127.51,310.61"/>
    </edge>
    <edge id=":2399740762_0" function="internal">
        <lane id=":2399740762_0_0" index="0" disallow="tram rail_urban rail rail_electric ship" speed="27.78" length="8.14" shape="286.59,263.80 287.20,266.28 288.36,267.80 289.50,269.33 290.04,271.81"/>
        <lane id=":2399740762_0_1" index="1" disallow="tram rail_urban rail rail_electric ship" speed="27.78" length="8.14" shape="286.59,263.80 286.84,271.87"/>
        <lane id=":2399740762_0_2" index="2" disallow="tram rail_urban rail rail_electric ship" speed="27.78" length="8.14" shape="283.39,263.94 283.64,271.92"/>
        <lane id=":2399740762_0_3" index="3" disallow="tram rail_urban rail rail_electric ship" speed="27.78" length="8.14" shape="280.20,264.08 280.44,271.98"/>
        <lane id=":2399740762_0_4" index="4" disallow="tram rail_urban rail rail_electric ship" speed="27.78" length="8.14" shape="277.00,264.22 277.24,272.04"/>
    </edge>
    <edge id=":2594721970_0" function="internal">
        <lane id=":2594721970_0_0" index="0" disallow="tram rail_urban rail rail_electric ship" speed="6.12" length="5.49" shape="288.87,248.02 287.58,248.82 286.68,249.81 286.16,250.97 286.04,252.32"/>
    </edge>
    <edge id=":2594721970_1" function="internal">
        <lane id=":2594721970_1_0" index="0" disallow="tram rail_urban rail rail_electric ship" speed="27.78" length="6.55" shape="284.29,246.21 284.09,248.09 283.55,249.35 283.02,250.60 282.85,252.48"/>
        <lane id=":2594721970_1_1" index="1" disallow="tram rail_urban rail rail_electric ship" speed="27.78" length="6.55" shape="281.09,246.32 280.89,248.22 280.35,249.48 279.82,250.74 279.65,252.64"/>
        <lane id=":2594721970_1_2" index="2" disallow="tram rail_urban rail rail_electric ship" speed="27.78" length="6.55" shape="277.89,246.44 277.69,248.35 277.16,249.62 276.63,250.89 276.45,252.80"/>
    </edge>
    <edge id=":49759090_0" function="internal">
        <lane id=":49759090_0_0" index="0" disallow="tram rail_urban rail rail_electric ship" speed="19.35" length="8.57" shape="220.75,179.24 223.29,179.18 225.02,178.97 226.70,178.47 229.04,177.51"/>
    </edge>
    <edge id=":49759090_1" function="internal">
        <lane id=":49759090_1_0" index="0" disallow="tram rail_urban rail rail_electric ship" speed="27.78" length="8.65" shape="220.79,182.44 229.43,182.32"/>
        <lane id=":49759090_1_1" index="1" disallow="tram rail_urban rail rail_electric ship" speed="27.78" length="8.65" shape="220.82,185.64 229.48,185.52"/>
    </edge>
    <edge id=":49759091_0" function="internal">
        <lane id=":49759091_0_0" index="0" disallow="tram rail_urban rail rail_electric ship" speed="27.78" length="14.93" shape="279.94,175.92 280.74,179.20 282.43,182.11 284.14,185.50 284.97,190.24"/>
        <lane id=":49759091_0_1" index="1" disallow="tram rail_urban rail rail_electric ship" speed="27.78" length="14.93" shape="279.94,175.92 280.24,179.26 280.84,182.27 281.44,185.69 281.77,190.29"/>
    </edge>
    <edge id=":49759091_2" function="internal">
        <lane id=":49759091_2_0" index="0" disallow="tram rail_urban rail rail_electric ship" speed="8.00" length="14.19" shape="269.63,181.68 273.49,182.17 276.26,183.78 277.95,186.50 278.57,190.34"/>
    </edge>
    <edge id=":49759091_3" function="internal">
        <lane id=":49759091_3_0" index="0" disallow="tram rail_urban rail rail_electric ship" speed="6.51" length="9.03" shape="269.68,184.88 272.13,185.20 273.90,186.22 274.98,187.95 275.37,190.39"/>
    </edge>
    <edge id=":49787926_0" function="internal">
        <lane id=":49787926_0_0" index="0" disallow="tram rail_urban rail rail_electric ship" speed="19.45" length="8.56" shape="235.67,316.33 233.30,315.45 231.61,315.01 229.86,314.86 227.33,314.89"/>
    </edge>
    <edge id=":49787926_1" function="internal">
        <lane id=":49787926_1_0" index="0" disallow="tram rail_urban rail rail_electric ship" speed="27.78" length="8.64" shape="235.89,311.50 227.26,311.69"/>
        <lane id=":49787926_1_1" index="1" disallow="tram rail_urban rail rail_electric ship" speed="27.78" length="8.64" shape="235.82,308.30 227.18,308.49"/>
    </edge>
    <edge id=":49787931_0" function="internal">
        <lane id=":49787931_0_0" index="0" disallow="tram rail_urban rail rail_electric ship" speed="6.05" length="9.07" shape="293.34,340.02 290.82,339.46 288.92,339.92 287.63,341.39 286.96,343.88"/>
    </edge>
    <edge id=":49787931_1" function="internal">
        <lane id=":49787931_1_0" index="0" disallow="tram rail_urban rail rail_electric ship" speed="27.78" length="16.02" shape="293.34,340.02 289.79,338.41 286.18,336.45 282.57,334.49 279.02,332.87"/>
    </edge>
    <edge id=":49787931_2" function="internal">
        <lane id=":49787931_2_0" index="0" disallow="tram rail_urban rail rail_electric ship" speed="7.93" length="10.77" shape="288.37,329.12 288.62,331.67 289.72,333.83 291.67,335.62 294.47,337.03"/>
    </edge>
    <edge id=":49787931_3" function="internal">
        <lane id=":49787931_3_0" index="0" disallow="tram rail_urban rail rail_electric ship" speed="25.00" length="14.65" shape="285.18,328.91 283.78,343.49"/>
    </edge>
    <edge id=":49787931_4" function="internal">
        <lane id=":49787931_4_0" index="0" disallow="tram rail_urban rail rail_electric ship" speed="5.95" length="9.09" shape="285.18,328.91 284.65,331.47 283.44,332.98 281.57,333.45 279.02,332.87"/>
    </edge>
    <edge id=":49787936_0" function="internal">
        <lane id=":49787936_0_0" index="0" disallow="tram rail_urban rail rail_electric ship" speed="27.78" length="21.84" shape="373.31,378.47 353.72,368.81"/>
    </edge>
    <edge id=":49787936_1" function="internal">
        <lane id=":49787936_1_0" index="0" disallow="tram rail_urban rail rail_electric ship" speed="6.97" length="6.73" shape="373.31,378.47 368.50,374.93 368.28,374.20"/>
    </edge>
    <edge id=":49787936_6" function="internal">
        <lane id=":49787936_6_0" index="0" speed="6.97" length="12.57" shape="368.28,374.20 367.41,371.42 369.88,368.70 375.73,367.51"/>
    </edge>
    <edge id=":49787936_2" function="internal">
        <lane id=":49787936_2_0" index="0" disallow="tram rail_urban rail rail_electric ship" speed="5.58" length="11.65" shape="375.81,370.71 371.79,371.10 370.27,372.05 371.25,373.55 374.73,375.60"/>
    </edge>
    <edge id=":49787936_3" function="internal">
        <lane id=":49787936_3_0" index="0" disallow="tram rail_urban rail rail_electric ship" speed="20.84" length="22.28" shape="375.81,370.71 370.88,370.77 364.57,370.63 358.36,370.06 353.72,368.81"/>
    </edge>
    <edge id=":49787936_4" function="internal">
        <lane id=":49787936_4_0" index="0" disallow="tram rail_urban rail rail_electric ship" speed="20.84" length="20.77" shape="355.14,365.94 359.54,367.14 365.24,367.60 371.04,367.62 375.73,367.51"/>
    </edge>
    <edge id=":49787936_5" function="internal">
        <lane id=":49787936_5_0" index="0" disallow="tram rail_urban rail rail_electric ship" speed="27.78" length="21.84" shape="355.14,365.94 374.73,375.60"/>
    </edge>
    <edge id=":49807115_0" function="internal">
        <lane id=":49807115_0_0" index="0" disallow="tram rail_urban rail rail_electric ship" speed="27.78" length="7.74" shape="290.43,293.60 290.13,296.03 289.40,297.64 288.68,299.25 288.42,301.69"/>
        <lane id=":49807115_0_1" index="1" disallow="tram rail_urban rail rail_electric ship" speed="27.78" length="7.74" shape="287.23,293.65 286.92,295.66 286.18,296.96 285.45,298.26 285.17,300.27"/>
    </edge>
    <edge id=":49807115_2" function="internal">
        <lane id=":49807115_2_0" index="0" disallow="tram rail_urban rail rail_electric ship" speed="13.01" length="9.50" shape="284.03,293.71 283.68,296.34 282.65,297.93 281.14,299.39 279.37,301.62"/>
    </edge>
    <edge id=":49807115_3" function="internal">
        <lane id=":49807115_3_0" index="0" disallow="tram rail_urban rail rail_electric ship" speed="11.77" length="7.72" shape="280.83,293.77 280.49,295.85 279.51,297.06 278.16,298.15 276.66,299.92"/>
    </edge>
    <edge id=":49831064_0" function="internal">
        <lane id=":49831064_0_0" index="0" disallow="tram rail_urban rail rail_electric ship" speed="9.07" length="11.94" shape="286.92,154.13 283.75,156.11 281.49,158.24 280.15,160.51 279.73,162.93"/>
    </edge>
    <edge id=":49831064_1" function="internal">
        <lane id=":49831064_1_0" index="0" disallow="tram rail_urban rail rail_electric ship" speed="5.73" length="9.19" shape="279.50,147.76 279.90,150.45 281.03,151.94 282.88,152.22 285.44,151.30"/>
    </edge>
    <edge id=":49831064_2" function="internal">
        <lane id=":49831064_2_0" index="0" disallow="tram rail_urban rail rail_electric ship" speed="27.78" length="15.17" shape="279.50,147.76 279.73,162.93"/>
    </edge>
    <edge id=":49831064_3" function="internal">
        <lane id=":49831064_3_0" index="0" disallow="tram rail_urban rail rail_electric ship" speed="27.78" length="13.82" shape="273.75,158.63 276.90,156.99 279.66,155.10 282.39,153.15 285.44,151.30"/>
    </edge>
    <edge id=":49831064_4" function="internal">
        <lane id=":49831064_4_0" index="0" disallow="tram rail_urban rail rail_electric ship" speed="5.92" length="5.83" shape="273.75,158.63 276.33,157.97 278.18,158.46 278.89,159.50"/>
    </edge>
    <edge id=":49831064_5" function="internal">
        <lane id=":49831064_5_0" index="0" speed="5.92" length="3.59" shape="278.89,159.50 279.31,160.12 279.73,162.93"/>
    </edge>
    <edge id=":49831070_0" function="internal">
        <lane id=":49831070_0_0" index="0" disallow="tram rail_urban rail rail_electric ship" speed="11.29" length="16.55" shape="372.88,121.42 367.70,118.76 363.39,117.18 359.94,116.69 357.35,117.28"/>
    </edge>
    <edge id=":49831070_1" function="internal">
        <lane id=":49831070_1_0" index="0" disallow="tram rail_urban rail rail_electric ship" speed="7.81" length="21.31" shape="374.45,118.61 369.47,115.64 368.46,111.73 370.88,107.51 376.20,103.59"/>
    </edge>
    <edge id=":49831070_2" function="internal">
        <lane id=":49831070_2_0" index="0" disallow="tram rail_urban rail rail_electric ship" speed="6.17" length="14.69" shape="377.73,106.40 373.05,109.33 371.48,111.39 373.02,112.59 377.65,112.91"/>
    </edge>
    <edge id=":49831070_3" function="internal">
        <lane id=":49831070_3_0" index="0" disallow="tram rail_urban rail rail_electric ship" speed="27.78" length="23.10" shape="377.73,106.40 357.35,117.28"/>
    </edge>
    <edge id=":49831070_4" function="internal">
        <lane id=":49831070_4_0" index="0" disallow="tram rail_urban rail rail_electric ship" speed="27.78" length="23.05" shape="355.87,114.44 376.20,103.59"/>
    </edge>
    <edge id=":49831070_5" function="internal">
        <lane id=":49831070_5_0" index="0" disallow="tram rail_urban rail rail_electric ship" speed="14.77" length="5.80" shape="355.87,114.44 359.42,113.32 361.49,113.25"/>
    </edge>
    <edge id=":49831070_6" function="internal">
        <lane id=":49831070_6_0" index="0" speed="14.77" length="14.86" shape="361.49,113.25 363.97,113.17 369.51,113.98 376.05,115.76"/>
    </edge>
    <edge id=":49883573_0" function="internal">
        <lane id=":49883573_0_0" index="0" disallow="tram rail_urban rail rail_electric ship" speed="27.78" length="0.10" shape="319.42,246.05 319.44,246.03"/>
    </edge>
    <edge id=":49883573_1" function="internal">
        <lane id=":49883573_1_0" index="0" disallow="tram rail_urban rail rail_electric ship" speed="27.78" length="0.10" shape="319.41,242.85 319.34,242.85"/>
    </edge>
    <edge id=":6054631-AddedOffRampNode_0" function="internal">
        <lane id=":6054631-AddedOffRampNode_0_0" index="0" disallow="tram rail_urban rail rail_electric ship" speed="27.78" length="8.27" shape="121.10,183.62 123.56,183.08 125.08,181.96 126.60,180.84 129.06,180.30"/>
        <lane id=":6054631-AddedOffRampNode_0_1" index="1" disallow="tram rail_urban rail rail_electric ship" speed="27.78" length="8.27" shape="121.10,183.62 129.10,183.50"/>
        <lane id=":6054631-AddedOffRampNode_0_2" index="2" disallow="tram rail_urban rail rail_electric ship" speed="27.78" length="8.27" shape="121.15,186.82 129.15,186.70"/>
    </edge>
    <edge id=":cluster_2399740768_2594721961_0" function="internal">
        <lane id=":cluster_2399740768_2594721961_0_0" index="0" disallow="tram rail_urban rail rail_electric ship" speed="10.05" length="9.88" shape="285.52,225.26 285.71,228.64 286.16,231.33 286.86,233.34 287.83,234.67"/>
    </edge>
    <edge id=":cluster_2399740768_2594721961_1" function="internal">
        <lane id=":cluster_2399740768_2594721961_1_0" index="0" disallow="tram rail_urban rail rail_electric ship" speed="27.78" length="10.86" shape="282.32,225.31 282.62,228.50 283.20,230.65 283.78,232.80 284.08,235.99"/>
        <lane id=":cluster_2399740768_2594721961_1_1" index="1" disallow="tram rail_urban rail rail_electric ship" speed="27.78" length="10.86" shape="279.12,225.37 279.42,228.56 280.00,230.71 280.58,232.85 280.88,236.04"/>
        <lane id=":cluster_2399740768_2594721961_1_2" index="2" disallow="tram rail_urban rail rail_electric ship" speed="27.78" length="10.86" shape="275.92,225.42 276.22,228.61 276.80,230.76 277.38,232.91 277.68,236.10"/>
    </edge>

    <edge id="-231628321" from="49883573" to="49739559" name="East Capitol Street Northeast" priority="7" type="highway.secondary" shape="319.38,244.45 357.36,243.51 514.79,240.08 525.12,239.97">
        <lane id="-231628321_0" index="0" disallow="tram rail_urban rail rail_electric ship" speed="27.78" length="205.81" shape="319.34,242.85 357.32,241.91 514.76,238.48 525.10,238.37">
            <param key="origId" value="231628321"/>
        </lane>
    </edge>
    <edge id="-50515734#0" from="49787936" to="49787931" name="North Carolina Avenue Northeast" priority="9" type="highway.primary" shape="358.72,369.50 305.82,343.34 300.22,340.91 286.35,335.67">
        <lane id="-50515734#0_0" index="0" disallow="tram rail_urban rail rail_electric ship" speed="27.78" length="66.93" shape="353.72,368.81 305.15,344.79 299.62,342.39 293.34,340.02">
            <param key="origId" value="50515734"/>
        </lane>
    </edge>
    <edge id="-50515734#1" from="49739569" to="49787936" name="North Carolina Avenue Northeast" priority="9" type="highway.primary" shape="529.25,453.62 515.13,446.93 502.42,441.10 453.28,416.08 358.72,369.50">
        <lane id="-50515734#1_0" index="0" disallow="tram rail_urban rail rail_electric ship" speed="27.78" length="173.13" shape="528.56,455.07 514.45,448.38 501.72,442.54 452.56,417.51 373.31,378.47">
            <param key="origId" value="50515734"/>
        </lane>
    </edge>
    <edge id="-50515736#0" from="49831070" to="49831064" name="Massachusetts Avenue Southeast" priority="9" type="highway.primary">
        <lane id="-50515736#0_0" index="0" disallow="tram rail_urban rail rail_electric ship" speed="27.78" length="79.49" shape="357.35,117.28 286.92,154.13">
            <param key="origId" value="50515736"/>
        </lane>
    </edge>
    <edge id="-50515736#1" from="1440867108" to="49831070" name="Massachusetts Avenue Southeast" priority="9" type="highway.primary">
        <lane id="-50515736#1_0" index="0" disallow="tram rail_urban rail rail_electric ship" speed="27.78" length="71.81" shape="440.88,72.23 377.73,106.40">
            <param key="origId" value="50515736"/>
        </lane>
    </edge>
    <edge id="-6059020" from="49738291" to="49787936" name="A Street Northeast" priority="4" type="highway.residential" shape="1243.31,349.12 939.95,356.10 813.46,359.01 688.91,361.88 527.50,365.61 358.72,369.50">
        <lane id="-6059020_0" index="0" disallow="tram rail_urban rail rail_electric ship" speed="13.89" length="867.77" shape="1243.35,350.72 939.99,357.70 813.50,360.61 688.95,363.48 527.54,367.21 375.81,370.71">
            <param key="origId" value="6059020"/>
        </lane>
    </edge>
    <edge id="-6061634" from="49841197" to="49831070" name="A Street Southeast" priority="4" type="highway.residential" shape="1237.93,98.79 1228.17,98.89 1194.51,99.51 1186.83,99.76 1162.17,100.55 1153.56,100.65 1129.59,100.97 1123.47,101.05 1087.19,101.95 1078.20,102.26 1003.26,104.06 984.79,104.50 977.90,104.61 952.26,104.99 933.70,105.72 926.85,105.98 877.49,106.83 807.67,108.35 785.55,108.94 693.25,110.83 690.13,110.90 683.55,111.03 675.79,111.20 672.46,111.26 643.28,111.59 530.80,114.16 527.15,114.24 521.95,114.34 512.15,114.78 414.49,117.02 376.93,117.72 375.00,117.10 365.07,111.43">
        <lane id="-6061634_0" index="0" disallow="tram rail_urban rail rail_electric ship" speed="13.89" length="864.67" shape="1237.98,103.59 1228.24,103.69 1194.63,104.31 1186.98,104.56 1162.27,105.35 1153.62,105.45 1129.65,105.77 1123.56,105.85 1087.32,106.75 1078.34,107.06 1003.38,108.86 984.89,109.30 977.97,109.41 952.39,109.79 933.89,110.52 926.98,110.78 877.58,111.63 807.79,113.15 785.66,113.74 693.35,115.63 690.23,115.70 683.65,115.83 675.89,116.00 672.53,116.06 643.36,116.39 530.91,118.96 527.25,119.04 522.10,119.14 512.31,119.58 414.59,121.82 376.22,122.53 373.05,121.52 372.88,121.42">
            <param key="origId" value="6061634"/>
        </lane>
        <lane id="-6061634_1" index="1" disallow="tram rail_urban rail rail_electric ship" speed="13.89" length="864.67" shape="1237.95,100.39 1228.19,100.49 1194.55,101.11 1186.88,101.36 1162.20,102.15 1153.58,102.25 1129.61,102.57 1123.50,102.65 1087.23,103.55 1078.25,103.86 1003.30,105.66 984.82,106.10 977.92,106.21 952.30,106.59 933.76,107.32 926.89,107.58 877.52,108.43 807.71,109.95 785.59,110.54 693.28,112.43 690.16,112.50 683.58,112.63 675.82,112.80 672.48,112.86 643.31,113.19 530.84,115.76 527.18,115.84 522.00,115.94 512.20,116.38 414.52,118.62 376.69,119.32 374.45,118.61">
            <param key="origId" value="6061634"/>
        </lane>
    </edge>
    <edge id="130714951" from="130714951-AddedOnRampNode" to="4001013312" name="East Capitol Street Northeast" priority="9" type="highway.primary" spreadType="center" shape="131.53,312.14 115.18,312.41 45.32,313.24">
        <lane id="130714951_0" index="0" disallow="tram rail_urban rail rail_electric ship" speed="27.78" length="82.22" shape="127.56,313.81 115.20,314.01 45.34,314.84">
            <param key="origId" value="130714951"/>
        </lane>
        <lane id="130714951_1" index="1" disallow="tram rail_urban rail rail_electric ship" speed="27.78" length="82.22" shape="127.51,310.61 115.16,310.81 45.30,311.64">
            <param key="origId" value="130714951"/>
        </lane>
    </edge>
    <edge id="130714951-AddedOnRampEdge" from="49787926" to="130714951-AddedOnRampNode" name="East Capitol Street Northeast" priority="9" type="highway.primary" spreadType="center" shape="231.55,311.59 196.63,312.40 157.82,313.30 131.56,313.74">
        <lane id="130714951-AddedOnRampEdge_0" index="0" disallow="tram rail_urban rail rail_electric ship" speed="27.78" length="91.72" acceleration="1" shape="227.33,314.89 196.70,315.60 157.88,316.50 135.61,316.87">
            <param key="origId" value="130714951"/>
        </lane>
        <lane id="130714951-AddedOnRampEdge_1" index="1" disallow="tram rail_urban rail rail_electric ship" speed="27.78" length="91.72" shape="227.26,311.69 196.63,312.40 157.82,313.30 135.56,313.67">
            <param key="origId" value="130714951"/>
        </lane>
        <lane id="130714951-AddedOnRampEdge_2" index="2" disallow="tram rail_urban rail rail_electric ship" speed="27.78" length="91.72" shape="227.18,308.49 196.56,309.20 157.76,310.10 135.50,310.47">
            <param key="origId" value="130714951"/>
        </lane>
    </edge>
    <edge id="130714953" from="49759090" to="49759091" name="East Capitol Street Southeast" priority="9" type="highway.primary" spreadType="center">
        <lane id="130714953_0" index="0" disallow="tram rail_urban rail rail_electric ship" speed="27.78" length="40.20" shape="229.43,182.32 269.63,181.68">
            <param key="origId" value="130714953"/>
        </lane>
        <lane id="130714953_1" index="1" disallow="tram rail_urban rail rail_electric ship" speed="27.78" length="40.20" shape="229.48,185.52 269.68,184.88">
            <param key="origId" value="130714953"/>
        </lane>
    </edge>
    <edge id="130715044" from="49807115" to="49787931" name="13th Street Northeast" priority="9" type="highway.primary" spreadType="center" shape="288.83,293.63 286.70,298.23 287.01,307.27 287.13,323.49 286.35,335.67">
        <lane id="130715044_0" index="0" disallow="tram rail_urban rail rail_electric ship" speed="27.78" length="28.05" shape="288.42,301.69 288.61,307.24 288.73,323.54 288.37,329.12">
            <param key="origId" value="130715044"/>
        </lane>
        <lane id="130715044_1" index="1" disallow="tram rail_urban rail rail_electric ship" speed="27.78" length="28.05" shape="285.17,300.27 285.41,307.30 285.53,323.44 285.18,328.91">
            <param key="origId" value="130715044"/>
        </lane>
    </edge>
    <edge id="231628320" from="49883573" to="2594721970" name="East Capitol Street" priority="7" type="highway.secondary" spreadType="center" shape="319.64,246.03 306.01,246.13 302.56,246.25 298.79,246.34 291.54,246.74 286.93,248.95 284.11,252.59 281.48,257.23">
        <lane id="231628320_0" index="0" disallow="tram rail_urban rail rail_electric ship" speed="27.78" length="30.87" shape="319.44,246.03 306.01,246.13 302.56,246.25 298.79,246.34 291.54,246.74 288.87,248.02">
            <param key="origId" value="231628320"/>
        </lane>
    </edge>
    <edge id="231628321" from="49739559" to="49883573" name="East Capitol Street Northeast" priority="7" type="highway.secondary" shape="525.12,239.97 514.79,240.08 357.36,243.51 319.38,244.45">
        <lane id="231628321_0" index="0" disallow="tram rail_urban rail rail_electric ship" speed="27.78" length="205.77" shape="525.14,241.57 514.82,241.68 357.40,245.11 319.42,246.05">
            <param key="origId" value="231628321"/>
        </lane>
    </edge>
    <edge id="231628322" from="cluster_2399740768_2594721961" to="49883573" name="East Capitol Street" priority="7" type="highway.secondary" spreadType="center" shape="280.72,225.34 284.25,229.83 287.71,234.56 291.56,238.01 293.87,240.13 299.01,241.44 307.14,242.00 319.61,242.87">
        <lane id="231628322_0" index="0" disallow="tram rail_urban rail rail_electric ship" speed="27.78" length="33.90" shape="287.83,234.67 291.56,238.01 293.87,240.13 299.01,241.44 307.14,242.00 319.41,242.85">
            <param key="origId" value="231628322"/>
        </lane>
    </edge>
    <edge id="397298730" from="cluster_2399740768_2594721961" to="2594721970" name="13th Street Southeast" priority="9" type="highway.primary" spreadType="center" shape="280.87,235.15 281.02,244.39 281.48,257.23">
        <lane id="397298730_0" index="0" disallow="tram rail_urban rail rail_electric ship" speed="27.78" length="10.28" shape="284.08,235.99 284.22,244.31 284.29,246.21">
            <param key="origId" value="397298730 397298729"/>
        </lane>
        <lane id="397298730_1" index="1" disallow="tram rail_urban rail rail_electric ship" speed="27.78" length="10.28" shape="280.88,236.04 281.02,244.39 281.09,246.32">
            <param key="origId" value="397298730 397298729"/>
        </lane>
        <lane id="397298730_2" index="2" disallow="tram rail_urban rail rail_electric ship" speed="27.78" length="10.28" shape="277.68,236.10 277.82,244.47 277.89,246.44">
            <param key="origId" value="397298730 397298729"/>
        </lane>
    </edge>
    <edge id="409541710" from="49759091" to="cluster_2399740768_2594721961" name="13th Street Southeast" priority="9" type="highway.primary" spreadType="center" shape="280.05,183.12 280.36,202.38 280.63,219.79 280.72,225.34">