<additional>
	<tlLogic id="gneJ1" type="static" programID="custom" offset="0">
		<phase duration="21" state="GGrrGGrr"/>
		<phase duration="3" state="yyrryyrr"/>
		<phase duration="21" state="rrGGrrGG"/>
		<phase duration="3" state="rryyrryy"/>
	</tlLogic>
	<edgeData id="Traffic Measures" file="turns_traffic.dump.xml"/>
	<edgeData id="Emission Data" type="emissions" file="turns_pollution.dump.xml"/>
	<edgeData id="Noise Data" type="harmonoise" file="turns_noise.dump.xml"/>
<<<<<<< HEAD
</additional>
=======
</additional>
>>>>>>> 6f73fa8d8cc7ebd9b78e3841f97a5e547b196ceb
