<?xml version="1.0" encoding="UTF-8"?>
<routes>
  <vType id="GenericCar" length="5.0" minGap="2.5" maxSpeed="50.0" accel="3.0" decel="6.0" sigma="0.5" /> 

  <route id="east_west" edges="EW_1 EW_2"/>
  <route id="west_east" edges="WE_1 WE_2"/>
  <route id="north_south" edges="NS_1 NS_2"/>
  <route id="south_north" edges="SN_1 SN_2"/>    <vehicle id="ns_0" type="GenericCar" route="north_south" depart="1.00" />
    <vehicle id="ns_1" type="GenericCar" route="north_south" depart="1.00" />
    <vehicle id="sn_2" type="GenericCar" route="south_north" depart="1.00" />
    <vehicle id="we_3" type="GenericCar" route="west_east" depart="1.00" />
    <vehicle id="we_4" type="GenericCar" route="west_east" depart="1.00" />
    <vehicle id="ew_5" type="GenericCar" route="east_west" depart="1.00" />
    <vehicle id="sn_6" type="GenericCar" route="south_north" depart="1.00" />
    <vehicle id="we_7" type="GenericCar" route="west_east" depart="1.00" />
    <vehicle id="ns_8" type="GenericCar" route="north_south" depart="1.00" />
    <vehicle id="sn_9" type="GenericCar" route="south_north" depart="1.00" />
    <vehicle id="ew_10" type="GenericCar" route="east_west" depart="1.00" />
    <vehicle id="ew_11" type="GenericCar" route="east_west" depart="1.00" />
    <vehicle id="sn_12" type="GenericCar" route="south_north" depart="1.00" />
    <vehicle id="ew_13" type="GenericCar" route="east_west" depart="1.00" />
    <vehicle id="ew_14" type="GenericCar" route="east_west" depart="1.00" />
    <vehicle id="we_15" type="GenericCar" route="west_east" depart="1.00" />
    <vehicle id="ns_16" type="GenericCar" route="north_south" depart="1.00" />
    <vehicle id="ew_17" type="GenericCar" route="east_west" depart="1.00" />
    <vehicle id="ns_18" type="GenericCar" route="north_south" depart="1.00" />
    <vehicle id="ns_19" type="GenericCar" route="north_south" depart="1.00" />
    <vehicle id="sn_20" type="GenericCar" route="south_north" depart="1.00" />
    <vehicle id="we_21" type="GenericCar" route="west_east" depart="1.00" />
    <vehicle id="we_22" type="GenericCar" route="west_east" depart="1.00" />
    <vehicle id="we_23" type="GenericCar" route="west_east" depart="1.00" />
    <vehicle id="sn_24" type="GenericCar" route="south_north" depart="1.00" />
    <vehicle id="we_25" type="GenericCar" route="west_east" depart="1.00" />
    <vehicle id="ns_26" type="GenericCar" route="north_south" depart="1.00" />
    <vehicle id="we_27" type="GenericCar" route="west_east" depart="1.00" />
    <vehicle id="we_28" type="GenericCar" route="west_east" depart="1.00" />
    <vehicle id="ew_29" type="GenericCar" route="east_west" depart="1.00" />
    <vehicle id="ew_30" type="GenericCar" route="east_west" depart="1.00" />
    <vehicle id="ns_31" type="GenericCar" route="north_south" depart="1.00" />
    <vehicle id="sn_32" type="GenericCar" route="south_north" depart="1.00" />
    <vehicle id="sn_33" type="GenericCar" route="south_north" depart="1.00" />
    <vehicle id="we_34" type="GenericCar" route="west_east" depart="1.00" />
    <vehicle id="ew_35" type="GenericCar" route="east_west" depart="1.00" />
    <vehicle id="ns_36" type="GenericCar" route="north_south" depart="1.00" />
    <vehicle id="we_37" type="GenericCar" route="west_east" depart="1.00" />
    <vehicle id="ns_38" type="GenericCar" route="north_south" depart="1.00" />
    <vehicle id="ew_39" type="GenericCar" route="east_west" depart="1.00" />
    <vehicle id="we_40" type="GenericCar" route="west_east" depart="1.00" />
    <vehicle id="we_41" type="GenericCar" route="west_east" depart="1.00" />
    <vehicle id="ew_42" type="GenericCar" route="east_west" depart="1.00" />
    <vehicle id="ew_43" type="GenericCar" route="east_west" depart="1.00" />
    <vehicle id="we_44" type="GenericCar" route="west_east" depart="1.00" />
    <vehicle id="ns_45" type="GenericCar" route="north_south" depart="1.00" />
    <vehicle id="ns_46" type="GenericCar" route="north_south" depart="1.00" />
    <vehicle id="ew_47" type="GenericCar" route="east_west" depart="1.00" />
    <vehicle id="ns_48" type="GenericCar" route="north_south" depart="1.00" />
    <vehicle id="ew_49" type="GenericCar" route="east_west" depart="1.00" />
    <vehicle id="ew_50" type="GenericCar" route="east_west" depart="1.00" />
    <vehicle id="ns_51" type="GenericCar" route="north_south" depart="1.00" />
    <vehicle id="sn_52" type="GenericCar" route="south_north" depart="1.00" />
    <vehicle id="ns_53" type="GenericCar" route="north_south" depart="1.00" />
    <vehicle id="ew_54" type="GenericCar" route="east_west" depart="1.00" />
    <vehicle id="sn_55" type="GenericCar" route="south_north" depart="1.00" />
    <vehicle id="ns_56" type="GenericCar" route="north_south" depart="1.00" />
    <vehicle id="ew_57" type="GenericCar" route="east_west" depart="1.00" />
    <vehicle id="sn_58" type="GenericCar" route="south_north" depart="1.00" />
    <vehicle id="we_59" type="GenericCar" route="west_east" depart="1.00" />
    <vehicle id="ns_60" type="GenericCar" route="north_south" depart="1.00" />
    <vehicle id="ns_61" type="GenericCar" route="north_south" depart="1.00" />
    <vehicle id="sn_62" type="GenericCar" route="south_north" depart="1.00" />
    <vehicle id="sn_63" type="GenericCar" route="south_north" depart="1.00" />
    <vehicle id="sn_64" type="GenericCar" route="south_north" depart="1.00" />
    <vehicle id="ew_65" type="GenericCar" route="east_west" depart="1.00" />
    <vehicle id="we_66" type="GenericCar" route="west_east" depart="1.00" />
    <vehicle id="ns_67" type="GenericCar" route="north_south" depart="1.00" />
    <vehicle id="ns_68" type="GenericCar" route="north_south" depart="1.00" />
    <vehicle id="sn_69" type="GenericCar" route="south_north" depart="1.00" />
    <vehicle id="we_70" type="GenericCar" route="west_east" depart="1.00" />
    <vehicle id="we_71" type="GenericCar" route="west_east" depart="1.00" />
    <vehicle id="we_72" type="GenericCar" route="west_east" depart="1.00" />
    <vehicle id="ns_73" type="GenericCar" route="north_south" depart="1.00" />
    <vehicle id="ns_74" type="GenericCar" route="north_south" depart="1.00" />
    <vehicle id="ew_75" type="GenericCar" route="east_west" depart="1.00" />
    <vehicle id="we_76" type="GenericCar" route="west_east" depart="1.00" />
    <vehicle id="we_77" type="GenericCar" route="west_east" depart="1.00" />
    <vehicle id="we_78" type="GenericCar" route="west_east" depart="1.00" />
    <vehicle id="we_79" type="GenericCar" route="west_east" depart="1.00" />
    <vehicle id="sn_80" type="GenericCar" route="south_north" depart="1.00" />
    <vehicle id="ew_81" type="GenericCar" route="east_west" depart="1.00" />
    <vehicle id="ns_82" type="GenericCar" route="north_south" depart="1.00" />
    <vehicle id="ew_83" type="GenericCar" route="east_west" depart="1.00" />
    <vehicle id="we_84" type="GenericCar" route="west_east" depart="1.00" />
    <vehicle id="ew_85" type="GenericCar" route="east_west" depart="1.00" />
    <vehicle id="ew_86" type="GenericCar" route="east_west" depart="1.00" />
    <vehicle id="ew_87" type="GenericCar" route="east_west" depart="1.00" />
    <vehicle id="ns_88" type="GenericCar" route="north_south" depart="1.00" />
    <vehicle id="ew_89" type="GenericCar" route="east_west" depart="1.00" />
    <vehicle id="we_90" type="GenericCar" route="west_east" depart="1.00" />
    <vehicle id="sn_91" type="GenericCar" route="south_north" depart="1.00" />
    <vehicle id="we_92" type="GenericCar" route="west_east" depart="1.00" />
    <vehicle id="sn_93" type="GenericCar" route="south_north" depart="1.00" />
    <vehicle id="ns_94" type="GenericCar" route="north_south" depart="1.00" />
    <vehicle id="sn_95" type="GenericCar" route="south_north" depart="1.00" />
    <vehicle id="ew_96" type="GenericCar" route="east_west" depart="1.00" />
    <vehicle id="ns_97" type="GenericCar" route="north_south" depart="1.00" />
    <vehicle id="sn_98" type="GenericCar" route="south_north" depart="1.00" />
    <vehicle id="sn_99" type="GenericCar" route="south_north" depart="1.00" />
    <vehicle id="ns_100" type="GenericCar" route="north_south" depart="1.00" />
    <vehicle id="sn_101" type="GenericCar" route="south_north" depart="1.00" />
    <vehicle id="sn_102" type="GenericCar" route="south_north" depart="1.00" />
    <vehicle id="we_103" type="GenericCar" route="west_east" depart="1.00" />
    <vehicle id="we_104" type="GenericCar" route="west_east" depart="1.00" />
    <vehicle id="sn_105" type="GenericCar" route="south_north" depart="1.00" />
    <vehicle id="ns_106" type="GenericCar" route="north_south" depart="1.00" />
    <vehicle id="ns_107" type="GenericCar" route="north_south" depart="1.00" />
    <vehicle id="we_108" type="GenericCar" route="west_east" depart="1.00" />
    <vehicle id="we_109" type="GenericCar" route="west_east" depart="1.00" />
    <vehicle id="ns_110" type="GenericCar" route="north_south" depart="1.00" />
    <vehicle id="ew_111" type="GenericCar" route="east_west" depart="1.00" />
    <vehicle id="sn_112" type="GenericCar" route="south_north" depart="1.00" />
    <vehicle id="ns_113" type="GenericCar" route="north_south" depart="1.00" />
    <vehicle id="ns_114" type="GenericCar" route="north_south" depart="1.00" />
    <vehicle id="ew_115" type="GenericCar" route="east_west" depart="1.00" />
    <vehicle id="we_116" type="GenericCar" route="west_east" depart="1.00" />
    <vehicle id="we_117" type="GenericCar" route="west_east" depart="1.00" />
    <vehicle id="ew_118" type="GenericCar" route="east_west" depart="1.00" />
    <vehicle id="ew_119" type="GenericCar" route="east_west" depart="1.00" />
    <vehicle id="ew_120" type="GenericCar" route="east_west" depart="1.00" />
    <vehicle id="we_121" type="GenericCar" route="west_east" depart="1.00" />
    <vehicle id="we_122" type="GenericCar" route="west_east" depart="1.00" />
    <vehicle id="we_123" type="GenericCar" route="west_east" depart="1.00" />
    <vehicle id="ew_124" type="GenericCar" route="east_west" depart="1.00" />
    <vehicle id="ns_125" type="GenericCar" route="north_south" depart="1.00" />
    <vehicle id="we_126" type="GenericCar" route="west_east" depart="1.00" />
    <vehicle id="ns_127" type="GenericCar" route="north_south" depart="1.00" />
    <vehicle id="ew_128" type="GenericCar" route="east_west" depart="1.00" />
    <vehicle id="ns_129" type="GenericCar" route="north_south" depart="1.00" />
    <vehicle id="ew_130" type="GenericCar" route="east_west" depart="1.00" />
    <vehicle id="sn_131" type="GenericCar" route="south_north" depart="1.00" />
    <vehicle id="we_132" type="GenericCar" route="west_east" depart="1.00" />
    <vehicle id="we_133" type="GenericCar" route="west_east" depart="1.00" />
    <vehicle id="sn_134" type="GenericCar" route="south_north" depart="1.00" />
    <vehicle id="we_135" type="GenericCar" route="west_east" depart="1.00" />
    <vehicle id="ns_136" type="GenericCar" route="north_south" depart="1.00" />
    <vehicle id="ew_137" type="GenericCar" route="east_west" depart="1.00" />
    <vehicle id="sn_138" type="GenericCar" route="south_north" depart="1.00" />
    <vehicle id="we_139" type="GenericCar" route="west_east" depart="1.00" />
    <vehicle id="sn_140" type="GenericCar" route="south_north" depart="1.00" />
    <vehicle id="we_141" type="GenericCar" route="west_east" depart="1.00" />
    <vehicle id="ns_142" type="GenericCar" route="north_south" depart="1.00" />
    <vehicle id="ew_143" type="GenericCar" route="east_west" depart="1.00" />
    <vehicle id="ew_144" type="GenericCar" route="east_west" depart="1.00" />
    <vehicle id="ns_145" type="GenericCar" route="north_south" depart="1.00" />
    <vehicle id="sn_146" type="GenericCar" route="south_north" depart="1.00" />
    <vehicle id="we_147" type="GenericCar" route="west_east" depart="1.00" />
    <vehicle id="we_148" type="GenericCar" route="west_east" depart="1.00" />
    <vehicle id="ns_149" type="GenericCar" route="north_south" depart="1.00" />
    <vehicle id="ns_150" type="GenericCar" route="north_south" depart="1.00" />
    <vehicle id="sn_151" type="GenericCar" route="south_north" depart="1.00" />
    <vehicle id="we_152" type="GenericCar" route="west_east" depart="1.00" />
    <vehicle id="ew_153" type="GenericCar" route="east_west" depart="1.00" />
    <vehicle id="ns_154" type="GenericCar" route="north_south" depart="1.00" />
    <vehicle id="we_155" type="GenericCar" route="west_east" depart="1.00" />
    <vehicle id="we_156" type="GenericCar" route="west_east" depart="1.00" />
    <vehicle id="ns_157" type="GenericCar" route="north_south" depart="1.00" />
    <vehicle id="ns_158" type="GenericCar" route="north_south" depart="1.00" />
    <vehicle id="ew_159" type="GenericCar" route="east_west" depart="1.00" />
    <vehicle id="we_160" type="GenericCar" route="west_east" depart="1.00" />
    <vehicle id="ns_161" type="GenericCar" route="north_south" depart="1.00" />
    <vehicle id="we_162" type="GenericCar" route="west_east" depart="1.00" />
    <vehicle id="ns_163" type="GenericCar" route="north_south" depart="1.00" />
    <vehicle id="we_164" type="GenericCar" route="west_east" depart="1.00" />
    <vehicle id="we_165" type="GenericCar" route="west_east" depart="1.00" />
    <vehicle id="sn_166" type="GenericCar" route="south_north" depart="1.00" />
    <vehicle id="ns_167" type="GenericCar" route="north_south" depart="1.00" />
    <vehicle id="ns_168" type="GenericCar" route="north_south" depart="1.00" />
    <vehicle id="ns_169" type="GenericCar" route="north_south" depart="1.00" />
    <vehicle id="ew_170" type="GenericCar" route="east_west" depart="1.00" />
    <vehicle id="we_171" type="GenericCar" route="west_east" depart="1.00" />
    <vehicle id="we_172" type="GenericCar" route="west_east" depart="1.00" />
    <vehicle id="we_173" type="GenericCar" route="west_east" depart="1.00" />
    <vehicle id="ew_174" type="GenericCar" route="east_west" depart="1.00" />
    <vehicle id="sn_175" type="GenericCar" route="south_north" depart="1.00" />
    <vehicle id="ew_176" type="GenericCar" route="east_west" depart="1.00" />
    <vehicle id="sn_177" type="GenericCar" route="south_north" depart="1.00" />
    <vehicle id="sn_178" type="GenericCar" route="south_north" depart="1.00" />
    <vehicle id="sn_179" type="GenericCar" route="south_north" depart="1.00" />
    <vehicle id="ew_180" type="GenericCar" route="east_west" depart="1.00" />
    <vehicle id="ns_181" type="GenericCar" route="north_south" depart="1.00" />
    <vehicle id="ns_182" type="GenericCar" route="north_south" depart="1.00" />
    <vehicle id="ew_183" type="GenericCar" route="east_west" depart="1.00" />
    <vehicle id="ew_184" type="GenericCar" route="east_west" depart="1.00" />
    <vehicle id="sn_185" type="GenericCar" route="south_north" depart="1.00" />
    <vehicle id="ew_186" type="GenericCar" route="east_west" depart="1.00" />
    <vehicle id="we_187" type="GenericCar" route="west_east" depart="1.00" />
    <vehicle id="we_188" type="GenericCar" route="west_east" depart="1.00" />
    <vehicle id="ew_189" type="GenericCar" route="east_west" depart="1.00" />
    <vehicle id="we_190" type="GenericCar" route="west_east" depart="1.00" />
    <vehicle id="ns_191" type="GenericCar" route="north_south" depart="1.00" />
    <vehicle id="ew_192" type="GenericCar" route="east_west" depart="1.00" />
    <vehicle id="we_193" type="GenericCar" route="west_east" depart="1.00" />
    <vehicle id="sn_194" type="GenericCar" route="south_north" depart="1.00" />
    <vehicle id="ns_195" type="GenericCar" route="north_south" depart="1.00" />
    <vehicle id="ns_196" type="GenericCar" route="north_south" depart="1.00" />
    <vehicle id="ew_197" type="GenericCar" route="east_west" depart="1.00" />
    <vehicle id="we_198" type="GenericCar" route="west_east" depart="1.00" />
    <vehicle id="we_199" type="GenericCar" route="west_east" depart="1.00" />
    <vehicle id="we_200" type="GenericCar" route="west_east" depart="1.00" />
    <vehicle id="we_201" type="GenericCar" route="west_east" depart="1.00" />
    <vehicle id="ns_202" type="GenericCar" route="north_south" depart="1.00" />
    <vehicle id="ns_203" type="GenericCar" route="north_south" depart="1.00" />
    <vehicle id="sn_204" type="GenericCar" route="south_north" depart="1.00" />
    <vehicle id="ew_205" type="GenericCar" route="east_west" depart="1.00" />
    <vehicle id="sn_206" type="GenericCar" route="south_north" depart="1.00" />
    <vehicle id="ew_207" type="GenericCar" route="east_west" depart="1.00" />
    <vehicle id="sn_208" type="GenericCar" route="south_north" depart="1.00" />
    <vehicle id="sn_209" type="GenericCar" route="south_north" depart="1.00" />
    <vehicle id="ns_210" type="GenericCar" route="north_south" depart="1.00" />
    <vehicle id="we_211" type="GenericCar" route="west_east" depart="1.00" />
    <vehicle id="ns_212" type="GenericCar" route="north_south" depart="1.00" />
    <vehicle id="ew_213" type="GenericCar" route="east_west" depart="1.00" />
    <vehicle id="sn_214" type="GenericCar" route="south_north" depart="1.00" />
    <vehicle id="sn_215" type="GenericCar" route="south_north" depart="1.00" />
    <vehicle id="we_216" type="GenericCar" route="west_east" depart="1.00" />
    <vehicle id="ew_217" type="GenericCar" route="east_west" depart="1.00" />
    <vehicle id="ew_218" type="GenericCar" route="east_west" depart="1.00" />
    <vehicle id="ns_219" type="GenericCar" route="north_south" depart="1.00" />
    <vehicle id="sn_220" type="GenericCar" route="south_north" depart="1.00" />
    <vehicle id="ew_221" type="GenericCar" route="east_west" depart="1.00" />
    <vehicle id="we_222" type="GenericCar" route="west_east" depart="1.00" />
    <vehicle id="sn_223" type="GenericCar" route="south_north" depart="1.00" />
    <vehicle id="we_224" type="GenericCar" route="west_east" depart="1.00" />
    <vehicle id="ns_225" type="GenericCar" route="north_south" depart="1.00" />
    <vehicle id="ew_226" type="GenericCar" route="east_west" depart="1.00" />
    <vehicle id="ns_227" type="GenericCar" route="north_south" depart="1.00" />
    <vehicle id="ns_228" type="GenericCar" route="north_south" depart="1.00" />
    <vehicle id="ns_229" type="GenericCar" route="north_south" depart="1.00" />
    <vehicle id="ew_230" type="GenericCar" route="east_west" depart="1.00" />
    <vehicle id="we_231" type="GenericCar" route="west_east" depart="1.00" />
    <vehicle id="sn_232" type="GenericCar" route="south_north" depart="1.00" />
    <vehicle id="we_233" type="GenericCar" route="west_east" depart="1.00" />
    <vehicle id="ns_234" type="GenericCar" route="north_south" depart="1.00" />
    <vehicle id="we_235" type="GenericCar" route="west_east" depart="1.00" />
    <vehicle id="ns_236" type="GenericCar" route="north_south" depart="1.00" />
    <vehicle id="ew_237" type="GenericCar" route="east_west" depart="1.00" />
    <vehicle id="ns_238" type="GenericCar" route="north_south" depart="1.00" />
    <vehicle id="ew_239" type="GenericCar" route="east_west" depart="1.00" />
    <vehicle id="we_240" type="GenericCar" route="west_east" depart="1.00" />
    <vehicle id="ew_241" type="GenericCar" route="east_west" depart="1.00" />
    <vehicle id="sn_242" type="GenericCar" route="south_north" depart="1.00" />
    <vehicle id="ns_243" type="GenericCar" route="north_south" depart="1.00" />
    <vehicle id="ns_244" type="GenericCar" route="north_south" depart="1.00" />
    <vehicle id="ew_245" type="GenericCar" route="east_west" depart="1.00" />
    <vehicle id="ew_246" type="GenericCar" route="east_west" depart="1.00" />
    <vehicle id="ns_247" type="GenericCar" route="north_south" depart="1.00" />
    <vehicle id="ns_248" type="GenericCar" route="north_south" depart="1.00" />
    <vehicle id="sn_249" type="GenericCar" route="south_north" depart="1.00" />
    <vehicle id="sn_250" type="GenericCar" route="south_north" depart="1.00" />
    <vehicle id="we_251" type="GenericCar" route="west_east" depart="1.00" />
    <vehicle id="sn_252" type="GenericCar" route="south_north" depart="1.00" />
    <vehicle id="ns_253" type="GenericCar" route="north_south" depart="1.00" />
    <vehicle id="we_254" type="GenericCar" route="west_east" depart="1.00" />
    <vehicle id="ns_255" type="GenericCar" route="north_south" depart="1.00" />
    <vehicle id="ns_256" type="GenericCar" route="north_south" depart="1.00" />
    <vehicle id="we_257" type="GenericCar" route="west_east" depart="1.00" />
    <vehicle id="we_258" type="GenericCar" route="west_east" depart="1.00" />
    <vehicle id="ew_259" type="GenericCar" route="east_west" depart="1.00" />
    <vehicle id="ew_260" type="GenericCar" route="east_west" depart="1.00" />
    <vehicle id="ns_261" type="GenericCar" route="north_south" depart="1.00" />
    <vehicle id="we_262" type="GenericCar" route="west_east" depart="1.00" />
    <vehicle id="we_263" type="GenericCar" route="west_east" depart="1.00" />
    <vehicle id="ns_264" type="GenericCar" route="north_south" depart="1.00" />
    <vehicle id="sn_265" type="GenericCar" route="south_north" depart="1.00" />
    <vehicle id="ns_266" type="GenericCar" route="north_south" depart="1.00" />
    <vehicle id="sn_267" type="GenericCar" route="south_north" depart="1.00" />
    <vehicle id="we_268" type="GenericCar" route="west_east" depart="1.00" />
    <vehicle id="we_269" type="GenericCar" route="west_east" depart="1.00" />
    <vehicle id="sn_270" type="GenericCar" route="south_north" depart="1.00" />
    <vehicle id="ns_271" type="GenericCar" route="north_south" depart="1.00" />
    <vehicle id="ew_272" type="GenericCar" route="east_west" depart="1.00" />
    <vehicle id="ew_273" type="GenericCar" route="east_west" depart="1.00" />
    <vehicle id="sn_274" type="GenericCar" route="south_north" depart="1.00" />
    <vehicle id="ew_275" type="GenericCar" route="east_west" depart="1.00" />
    <vehicle id="ns_276" type="GenericCar" route="north_south" depart="1.00" />
    <vehicle id="ew_277" type="GenericCar" route="east_west" depart="1.00" />
    <vehicle id="we_278" type="GenericCar" route="west_east" depart="1.00" />
    <vehicle id="sn_279" type="GenericCar" route="south_north" depart="1.00" />
    <vehicle id="ew_280" type="GenericCar" route="east_west" depart="1.00" />
    <vehicle id="sn_281" type="GenericCar" route="south_north" depart="1.00" />
    <vehicle id="we_282" type="GenericCar" route="west_east" depart="1.00" />
    <vehicle id="ew_283" type="GenericCar" route="east_west" depart="1.00" />
    <vehicle id="sn_284" type="GenericCar" route="south_north" depart="1.00" />
    <vehicle id="ns_285" type="GenericCar" route="north_south" depart="1.00" />
    <vehicle id="ew_286" type="GenericCar" route="east_west" depart="1.00" />
    <vehicle id="ns_287" type="GenericCar" route="north_south" depart="1.00" />
    <vehicle id="ew_288" type="GenericCar" route="east_west" depart="1.00" />
    <vehicle id="ns_289" type="GenericCar" route="north_south" depart="1.00" />
    <vehicle id="sn_290" type="GenericCar" route="south_north" depart="1.00" />
    <vehicle id="ew_291" type="GenericCar" route="east_west" depart="1.00" />
    <vehicle id="we_292" type="GenericCar" route="west_east" depart="1.00" />
    <vehicle id="ns_293" type="GenericCar" route="north_south" depart="1.00" />
    <vehicle id="ew_294" type="GenericCar" route="east_west" depart="1.00" />
    <vehicle id="we_295" type="GenericCar" route="west_east" depart="1.00" />
    <vehicle id="ns_296" type="GenericCar" route="north_south" depart="1.00" />
    <vehicle id="ew_297" type="GenericCar" route="east_west" depart="1.00" />
    <vehicle id="ns_298" type="GenericCar" route="north_south" depart="1.00" />
    <vehicle id="sn_299" type="GenericCar" route="south_north" depart="1.00" />
    <vehicle id="sn_300" type="GenericCar" route="south_north" depart="1.00" />
    <vehicle id="we_301" type="GenericCar" route="west_east" depart="1.00" />
    <vehicle id="ew_302" type="GenericCar" route="east_west" depart="1.00" />
    <vehicle id="we_303" type="GenericCar" route="west_east" depart="1.00" />
    <vehicle id="ew_304" type="GenericCar" route="east_west" depart="1.00" />
    <vehicle id="ew_305" type="GenericCar" route="east_west" depart="1.00" />
    <vehicle id="ew_306" type="GenericCar" route="east_west" depart="1.00" />
    <vehicle id="ns_307" type="GenericCar" route="north_south" depart="1.00" />
    <vehicle id="sn_308" type="GenericCar" route="south_north" depart="1.00" />
    <vehicle id="sn_309" type="GenericCar" route="south_north" depart="1.00" />
    <vehicle id="ns_310" type="GenericCar" route="north_south" depart="1.00" />
    <vehicle id="we_311" type="GenericCar" route="west_east" depart="1.00" />
    <vehicle id="we_312" type="GenericCar" route="west_east" depart="1.00" />
    <vehicle id="we_313" type="GenericCar" route="west_east" depart="1.00" />
    <vehicle id="ns_314" type="GenericCar" route="north_south" depart="1.00" />
    <vehicle id="ns_315" type="GenericCar" route="north_south" depart="1.00" />
    <vehicle id="we_316" type="GenericCar" route="west_east" depart="1.00" />
    <vehicle id="ns_317" type="GenericCar" route="north_south" depart="1.00" />
    <vehicle id="ew_318" type="GenericCar" route="east_west" depart="1.00" />
    <vehicle id="we_319" type="GenericCar" route="west_east" depart="1.00" />
    <vehicle id="ns_320" type="GenericCar" route="north_south" depart="1.00" />
    <vehicle id="ns_321" type="GenericCar" route="north_south" depart="1.00" />
    <vehicle id="sn_322" type="GenericCar" route="south_north" depart="1.00" />
    <vehicle id="we_323" type="GenericCar" route="west_east" depart="1.00" />
    <vehicle id="we_324" type="GenericCar" route="west_east" depart="1.00" />
    <vehicle id="we_325" type="GenericCar" route="west_east" depart="1.00" />
    <vehicle id="ew_326" type="GenericCar" route="east_west" depart="1.00" />
    <vehicle id="ns_327" type="GenericCar" route="north_south" depart="1.00" />
    <vehicle id="ew_328" type="GenericCar" route="east_west" depart="1.00" />
    <vehicle id="sn_329" type="GenericCar" route="south_north" depart="1.00" />
    <vehicle id="ns_330" type="GenericCar" route="north_south" depart="1.00" />
    <vehicle id="ns_331" type="GenericCar" route="north_south" depart="1.00" />
    <vehicle id="we_332" type="GenericCar" route="west_east" depart="1.00" />
    <vehicle id="ns_333" type="GenericCar" route="north_south" depart="1.00" />
    <vehicle id="ns_334" type="GenericCar" route="north_south" depart="1.00" />
    <vehicle id="we_335" type="GenericCar" route="west_east" depart="1.00" />
    <vehicle id="sn_336" type="GenericCar" route="south_north" depart="1.00" />
    <vehicle id="sn_337" type="GenericCar" route="south_north" depart="1.00" />
    <vehicle id="ew_338" type="GenericCar" route="east_west" depart="1.00" />
    <vehicle id="we_339" type="GenericCar" route="west_east" depart="1.00" />
    <vehicle id="we_340" type="GenericCar" route="west_east" depart="1.00" />
    <vehicle id="ew_341" type="GenericCar" route="east_west" depart="1.00" />
    <vehicle id="ns_342" type="GenericCar" route="north_south" depart="1.00" />
    <vehicle id="ns_343" type="GenericCar" route="north_south" depart="1.00" />
    <vehicle id="ew_344" type="GenericCar" route="east_west" depart="1.00" />
    <vehicle id="ns_345" type="GenericCar" route="north_south" depart="1.00" />
    <vehicle id="we_346" type="GenericCar" route="west_east" depart="1.00" />
    <vehicle id="we_347" type="GenericCar" route="west_east" depart="1.00" />
    <vehicle id="sn_348" type="GenericCar" route="south_north" depart="1.00" />
    <vehicle id="we_349" type="GenericCar" route="west_east" depart="1.00" />
    <vehicle id="ew_350" type="GenericCar" route="east_west" depart="1.00" />
    <vehicle id="ns_351" type="GenericCar" route="north_south" depart="1.00" />
    <vehicle id="ew_352" type="GenericCar" route="east_west" depart="1.00" />
    <vehicle id="ns_353" type="GenericCar" route="north_south" depart="1.00" />
    <vehicle id="sn_354" type="GenericCar" route="south_north" depart="1.00" />
    <vehicle id="we_355" type="GenericCar" route="west_east" depart="1.00" />
    <vehicle id="we_356" type="GenericCar" route="west_east" depart="1.00" />
    <vehicle id="we_357" type="GenericCar" route="west_east" depart="1.00" />
    <vehicle id="we_358" type="GenericCar" route="west_east" depart="1.00" />
    <vehicle id="ew_359" type="GenericCar" route="east_west" depart="1.00" />
    <vehicle id="we_360" type="GenericCar" route="west_east" depart="1.00" />
    <vehicle id="we_361" type="GenericCar" route="west_east" depart="1.00" />
    <vehicle id="ew_362" type="GenericCar" route="east_west" depart="1.00" />
    <vehicle id="ns_363" type="GenericCar" route="north_south" depart="1.00" />
    <vehicle id="we_364" type="GenericCar" route="west_east" depart="1.00" />
    <vehicle id="we_365" type="GenericCar" route="west_east" depart="1.00" />
    <vehicle id="ns_366" type="GenericCar" route="north_south" depart="1.00" />
    <vehicle id="we_367" type="GenericCar" route="west_east" depart="1.00" />
    <vehicle id="we_368" type="GenericCar" route="west_east" depart="1.00" />
    <vehicle id="sn_369" type="GenericCar" route="south_north" depart="1.00" />
    <vehicle id="ew_370" type="GenericCar" route="east_west" depart="1.00" />
    <vehicle id="ns_371" type="GenericCar" route="north_south" depart="1.00" />
    <vehicle id="sn_372" type="GenericCar" route="south_north" depart="1.00" />
    <vehicle id="we_373" type="GenericCar" route="west_east" depart="1.00" />
    <vehicle id="ns_374" type="GenericCar" route="north_south" depart="1.00" />
    <vehicle id="sn_375" type="GenericCar" route="south_north" depart="1.00" />
    <vehicle id="we_376" type="GenericCar" route="west_east" depart="1.00" />