<configuration>
    <input>
       <net-file value="turns.net.xml"/>
       <route-files value="turns.rou.xml"/>
	   <additional-files value="turns_tl.add.xml"/>
    </input>
</configuration>