<?xml version="1.0" encoding="UTF-8"?>

<!-- generated on 09/28/18 09:00:00 by Eclipse SUMO duarouter Version 1.0.0
<configuration xmlns:xsi="http://www.w3.org/2001/XMLSchema-instance" xsi:noNamespaceSchemaLocation="http://sumo.dlr.de/xsd/duarouterConfiguration.xsd">

    <input>
        <net-file value="DCsmall.net.xml"/>
        <route-files value="trips.trips.xml"/>
    </input>

    <output>
        <output-file value="DCsmall.rou.xml"/>
        <alternatives-output value="DCsmall.rou.alt.xml"/>
    </output>

    <time>
        <begin value="0"/>
        <end value="3600"/>
    </time>

    <report>
        <no-warnings value="true"/>
        <ignore-errors value="true"/>
        <no-step-log value="true"/>
    </report>

</configuration>
-->

<routes xmlns:xsi="http://www.w3.org/2001/XMLSchema-instance" xsi:noNamespaceSchemaLocation="http://sumo.dlr.de/xsd/routes_file.xsd">
    <vehicle id="0" depart="0.00">
        <route edges="-50515736#0"/>
    </vehicle>
    <vehicle id="1" depart="1.00">
        <route edges="6054631 6054631-AddedOffRampEdge 130714953 409541710 397298730"/>
    </vehicle>
    <vehicle id="3" depart="3.00">
        <route edges="-50515734#1 6059020"/>
    </vehicle>
    <vehicle id="5" depart="5.00">
        <route edges="gneE5 6672155 470176875 6062713 130714951-AddedOnRampEdge"/>
    </vehicle>
    <vehicle id="6" depart="6.00">
        <route edges="409541710 397298730 6672155 470176875"/>
    </vehicle>
    <vehicle id="7" depart="7.00">
        <route edges="130714953 409541710 231628322"/>
    </vehicle>
    <vehicle id="8" depart="8.00">
        <route edges="6054631-AddedOffRampEdge 130714953 409541710 397298730 6672155 470176875 6062713"/>
    </vehicle>
    <vehicle id="13" depart="13.00">
        <route edges="-50515734#1 -50515734#0"/>
    </vehicle>
    <vehicle id="17" depart="17.00">
        <route edges="-50515736#1 -50515736#0 589551003 409541710 397298730 6672155 470176875"/>
    </vehicle>
    <vehicle id="18" depart="18.00">
        <route edges="6054631 6054631-AddedOffRampEdge 130714953 409541710 397298730 6672155 470176875 6062713"/>
    </vehicle>
    <vehicle id="19" depart="19.00">
        <route edges="-6059020 -50515734#0 6056826"/>
    </vehicle>
    <vehicle id="20" depart="20.00">
        <route edges="589551003 409541710 397298730 6672155 470176875 6062713"/>
    </vehicle>
    <vehicle id="23" depart="23.00">
        <route edges="6672155 470176875 6062713 130714951-AddedOnRampEdge"/>
    </vehicle>
    <vehicle id="25" depart="25.00">
        <route edges="130714953 409541710"/>
    </vehicle>
    <vehicle id="27" depart="27.00">
        <route edges="-6061634 -50515736#0 589551003 409541710 397298730"/>
    </vehicle>
    <vehicle id="28" depart="28.00">
        <route edges="-50515736#0 589551003 409541710 397298730"/>
    </vehicle>
    <vehicle id="31" depart="31.00">
        <route edges="50515731 589551003"/>
    </vehicle>
    <vehicle id="34" depart="34.00">
        <route edges="6054631 6054631-AddedOffRampEdge 130714953 409541710 231628322 -231628321"/>
    </vehicle>
    <vehicle id="36" depart="36.00">
        <route edges="gneE5 6672155 470176875 6062713 130714951-AddedOnRampEdge 130714951"/>
    </vehicle>
    <vehicle id="37" depart="37.00">
        <route edges="-50515734#1 -50515734#0 6056826"/>
    </vehicle>
    <vehicle id="38" depart="38.00">
        <route edges="gneE5 6672155 470176875 6062713 130714951-AddedOnRampEdge"/>
    </vehicle>
    <vehicle id="44" depart="44.00">
        <route edges="6280746 50515736#0 50515736#1"/>
    </vehicle>
    <vehicle id="48" depart="48.00">
        <route edges="-50515736#0 589551003 409541710"/>
    </vehicle>
    <vehicle id="52" depart="52.00">
        <route edges="409541710 397298730 6672155 470176875 130715044 50515734#0 6059020"/>
    </vehicle>
    <vehicle id="54" depart="54.00">
        <route edges="50515736#0"/>
    </vehicle>
    <vehicle id="58" depart="58.00">
        <route edges="50515731 50515736#0 50515736#1"/>
    </vehicle>
    <vehicle id="60" depart="60.00">
        <route edges="50515736#0 6061634"/>
    </vehicle>
    <vehicle id="61" depart="61.00">
        <route edges="397298730 6672155"/>
    </vehicle>
    <vehicle id="63" depart="63.00">
        <route edges="470176875 130715044 50515732"/>
    </vehicle>
    <vehicle id="67" depart="67.00">
        <route edges="50515731 589551003 409541710 397298730 6672155 470176875 6062713 130714951-AddedOnRampEdge 130714951"/>
    </vehicle>
    <vehicle id="69" depart="69.00">
        <route edges="409541710 397298730 6672155 470176875"/>
    </vehicle>
    <vehicle id="70" depart="70.00">
        <route edges="-50515734#1 6059020"/>
    </vehicle>
    <vehicle id="72" depart="72.00">
        <route edges="6280746 50515736#0 50515736#1"/>
    </vehicle>
    <vehicle id="73" depart="73.00">
        <route edges="470176875 6062713 130714951-AddedOnRampEdge"/>
    </vehicle>
    <vehicle id="74" depart="74.00">
        <route edges="-50515736#1 -50515736#0 589551003 409541710 397298730 6672155 470176875 130715044 50515734#0 50515734#1"/>
    </vehicle>
    <vehicle id="75" depart="75.00">
        <route edges="-50515734#0 6056826 130714951-AddedOnRampEdge 130714951"/>
    </vehicle>
    <vehicle id="78" depart="78.00">
        <route edges="6054631-AddedOffRampEdge 130714953 409541710 397298730 6672155 470176875 130715044 50515734#0 50515734#1"/>
    </vehicle>
    <vehicle id="82" depart="82.00">
        <route edges="6054631-AddedOffRampEdge 130714953 409541710 397298730"/>
    </vehicle>
    <vehicle id="83" depart="83.00">
        <route edges="589551003 409541710 397298730 6672155 470176875 130715044 50515734#0"/>
    </vehicle>
    <vehicle id="84" depart="84.00">
        <route edges="397298730 6672155 470176875 130715044 6056826"/>
    </vehicle>
    <vehicle id="87" depart="87.00">
        <route edges="6280746 589551003 409541710 397298730 6672155 470176875 130715044 6056826"/>
    </vehicle>
    <vehicle id="89" depart="89.00">
        <route edges="130715044 50515734#0"/>
    </vehicle>
    <vehicle id="91" depart="91.00">
        <route edges="-50515736#1 -50515736#0 589551003 409541710"/>
    </vehicle>
    <vehicle id="92" depart="92.00">
        <route edges="6054631-AddedOffRampEdge 130714953 409541710 397298730 6672155 470176875 130715044"/>
    </vehicle>
    <vehicle id="93" depart="93.00">
        <route edges="409541710 397298730 6672155 470176875 130715044 50515734#0 50515734#1"/>
    </vehicle>
    <vehicle id="94" depart="94.00">
        <route edges="gneE5 6672155 470176875 130715044 6056826"/>
    </vehicle>
    <vehicle id="96" depart="96.00">
        <route edges="130714953 409541710 397298730 6672155 470176875 6062713 130714951-AddedOnRampEdge 130714951"/>
    </vehicle>
    <vehicle id="101" depart="101.00">
        <route edges="6054631-AddedOffRampEdge 130714953 409541710 231628322 -231628321"/>
    </vehicle>
    <vehicle id="102" depart="102.00">
        <route edges="6054631-AddedOffRampEdge 130714953 409541710 397298730 6672155 470176875 6062713"/>
    </vehicle>
    <vehicle id="105" depart="105.00">
        <route edges="6054631-AddedOffRampEdge 130714953 409541710 397298730 6672155 470176875 130715044 50515734#0 6059020"/>
    </vehicle>
    <vehicle id="106" depart="106.00">
        <route edges="-50515736#0 589551003 409541710 397298730 6672155 470176875 6062713 130714951-AddedOnRampEdge 130714951"/>
    </vehicle>
    <vehicle id="107" depart="107.00">
        <route edges="50515736#0"/>
    </vehicle>
    <vehicle id="117" depart="117.00">
        <route edges="6054631-AddedOffRampEdge 6280746"/>
    </vehicle>
    <vehicle id="118" depart="118.00">
        <route edges="-50515736#1 -50515736#0 589551003 409541710 397298730 6672155 470176875 130715044 50515734#0"/>
    </vehicle>
    <vehicle id="120" depart="120.00">
        <route edges="-50515736#1 -50515736#0 589551003 409541710 397298730 6672155 470176875 6062713"/>
    </vehicle>
    <vehicle id="121" depart="121.00">
        <route edges="-6061634 -50515736#0 589551003"/>
    </vehicle>
    <vehicle id="122" depart="122.00">
        <route edges="130714953 409541710 397298730 6672155 470176875 6062713 130714951-AddedOnRampEdge 130714951"/>
    </vehicle>
    <vehicle id="124" depart="124.00">
        <route edges="-50515736#0 589551003 409541710 397298730 6672155 470176875 130715044 6056826"/>
    </vehicle>
    <vehicle id="125" depart="125.00">
        <route edges="-6061634 -50515736#0 589551003 409541710 231628322"/>
    </vehicle>
    <vehicle id="129" depart="129.00">
        <route edges="589551003 409541710 397298730 6672155 470176875 130715044 50515734#0 50515734#1"/>
    </vehicle>
    <vehicle id="130" depart="130.00">
        <route edges="130715044 6056826 130714951-AddedOnRampEdge"/>
    </vehicle>
    <vehicle id="132" depart="132.00">
        <route edges="130714953 409541710 397298730"/>
    </vehicle>
    <vehicle id="133" depart="133.00">
        <route edges="50515736#0 50515736#1"/>
    </vehicle>
    <vehicle id="137" depart="137.00">
        <route edges="409541710"/>
    </vehicle>
    <vehicle id="138" depart="138.00">
        <route edges="6056826 130714951-AddedOnRampEdge"/>
    </vehicle>
    <vehicle id="142" depart="142.00">
        <route edges="50515731 589551003 409541710 397298730 6672155 470176875 6062713 130714951-AddedOnRampEdge"/>
    </vehicle>
    <vehicle id="143" depart="143.00">
        <route edges="-50515736#1 -50515736#0 589551003 409541710 397298730 6672155 470176875 130715044 50515732"/>
    </vehicle>
    <vehicle id="145" depart="145.00">
        <route edges="-50515736#0 589551003 409541710 397298730"/>
    </vehicle>
    <vehicle id="146" depart="146.00">
        <route edges="50515731 589551003 409541710 397298730 6672155 470176875 6062713"/>
    </vehicle>
    <vehicle id="150" depart="150.00">
        <route edges="6054631-AddedOffRampEdge 6280746 50515736#0 6061634"/>
    </vehicle>
    <vehicle id="151" depart="151.00">
        <route edges="-6061634 -50515736#0 589551003 409541710 397298730 6672155 470176875 130715044 50515734#0"/>
    </vehicle>
    <vehicle id="153" depart="153.00">
        <route edges="130715044 50515732"/>
    </vehicle>
    <vehicle id="156" depart="156.00">
        <route edges="589551003"/>
    </vehicle>
    <vehicle id="157" depart="157.00">
        <route edges="-6061634 -50515736#0 589551003 409541710"/>
    </vehicle>
    <vehicle id="159" depart="159.00">
        <route edges="6672155 470176875 130715044 50515734#0 50515734#1"/>
    </vehicle>
    <vehicle id="161" depart="161.00">
        <route edges="6054631 6054631-AddedOffRampEdge 130714953 409541710 231628322 -231628321"/>
    </vehicle>
    <vehicle id="163" depart="163.00">
        <route edges="-50515736#1 -50515736#0 589551003 409541710 397298730 6672155 470176875 130715044 50515734#0 50515734#1"/>
    </vehicle>
    <vehicle id="165" depart="165.00">
        <route edges="-6061634 -50515736#0 589551003 409541710 397298730 6672155 470176875 130715044 50515734#0 6059020"/>
    </vehicle>
    <vehicle id="170" depart="170.00">
        <route edges="6672155 470176875 6062713 130714951-AddedOnRampEdge"/>
    </vehicle>
    <vehicle id="172" depart="172.00">
        <route edges="130714953 409541710 397298730 6672155 470176875 6062713 130714951-AddedOnRampEdge"/>
    </vehicle>
    <vehicle id="173" depart="173.00">
        <route edges="6054631-AddedOffRampEdge 130714953 409541710 397298730 6672155 470176875"/>
    </vehicle>
    <vehicle id="175" depart="175.00">
        <route edges="6054631 6054631-AddedOffRampEdge 6280746 50515736#0 50515736#1"/>
    </vehicle>
    <vehicle id="177" depart="177.00">
        <route edges="231628322 -231628321"/>
    </vehicle>
    <vehicle id="179" depart="179.00">
        <route edges="50515731 589551003 409541710 397298730 6672155 470176875 130715044 50515734#0"/>
    </vehicle>
    <vehicle id="181" depart="181.00">
        <route edges="6054631 6054631-AddedOffRampEdge 6280746 50515736#0"/>
    </vehicle>
    <vehicle id="184" depart="184.00">
        <route edges="6054631 6054631-AddedOffRampEdge 6280746 50515736#0 6061634"/>
    </vehicle>
    <vehicle id="186" depart="186.00">
        <route edges="231628321 gneE5 6672155 470176875 6062713"/>
    </vehicle>
    <vehicle id="190" depart="190.00">
        <route edges="-50515736#0"/>
    </vehicle>
    <vehicle id="191" depart="191.00">
        <route edges="6056826 130714951-AddedOnRampEdge 130714951"/>
    </vehicle>
    <vehicle id="192" depart="192.00">
        <route edges="397298730 6672155 470176875 130715044 50515734#0"/>
    </vehicle>
    <vehicle id="200" depart="200.00">
        <route edges="130714953 409541710 397298730 6672155 470176875 6062713 130714951-AddedOnRampEdge"/>
    </vehicle>
    <vehicle id="204" depart="204.00">
        <route edges="130714953 409541710 397298730 6672155"/>
    </vehicle>
    <vehicle id="205" depart="205.00">
        <route edges="-50515734#1 -50515734#0 50515732"/>
    </vehicle>
    <vehicle id="206" depart="206.00">
        <route edges="397298730 6672155 470176875 130715044 50515734#0"/>
    </vehicle>
    <vehicle id="210" depart="210.00">
        <route edges="6062713"/>
    </vehicle>
    <vehicle id="212" depart="212.00">
        <route edges="50515731 589551003 409541710 397298730"/>
    </vehicle>
    <vehicle id="214" depart="214.00">
        <route edges="130715044"/>
    </vehicle>
    <vehicle id="216" depart="216.00">
        <route edges="130714951-AddedOnRampEdge 130714951"/>
    </vehicle>
    <vehicle id="220" depart="220.00">
        <route edges="130715044 6056826"/>
    </vehicle>
    <vehicle id="221" depart="221.00">
        <route edges="gneE5 6672155 470176875 130715044 6056826"/>
    </vehicle>
    <vehicle id="224" depart="224.00">
        <route edges="6280746 589551003 409541710 397298730"/>
    </vehicle>
    <vehicle id="225" depart="225.00">
        <route edges="397298730 6672155"/>
    </vehicle>
    <vehicle id="226" depart="226.00">
        <route edges="6054631-AddedOffRampEdge 130714953 409541710 397298730 6672155"/>
    </vehicle>
    <vehicle id="227" depart="227.00">
        <route edges="-50515736#0 589551003 409541710 397298730 6672155 470176875 130715044 6056826"/>
    </vehicle>
    <vehicle id="229" depart="229.00">
        <route edges="-50515736#0 589551003 409541710 397298730 6672155"/>
    </vehicle>
    <vehicle id="230" depart="230.00">
        <route edges="6054631 6054631-AddedOffRampEdge 130714953 409541710"/>
    </vehicle>
    <vehicle id="231" depart="231.00">
        <route edges="50515731 50515736#0 50515736#1"/>
    </vehicle>
    <vehicle id="235" depart="235.00">
        <route edges="130714953 409541710 231628322 -231628321"/>
    </vehicle>
    <vehicle id="236" depart="236.00">
        <route edges="6672155 470176875 130715044 50515734#0 6059020"/>
    </vehicle>
    <vehicle id="237" depart="237.00">
        <route edges="6280746 50515736#0"/>
    </vehicle>
    <vehicle id="238" depart="238.00">
        <route edges="50515734#0 50515734#1"/>
    </vehicle>
    <vehicle id="241" depart="241.00">
        <route edges="6054631 6054631-AddedOffRampEdge 130714953 409541710 397298730 6672155 470176875 130715044 50515734#0 6059020"/>
    </vehicle>
    <vehicle id="243" depart="243.00">
        <route edges="130714953 409541710 397298730 6672155 470176875 130715044 50515734#0 50515734#1"/>
    </vehicle>
    <vehicle id="244" depart="244.00">
        <route edges="470176875 6062713 130714951-AddedOnRampEdge"/>
    </vehicle>
    <vehicle id="246" depart="246.00">
        <route edges="6054631-AddedOffRampEdge 6280746 589551003"/>
    </vehicle>
    <vehicle id="250" depart="250.00">
        <route edges="-6061634 -50515736#0 589551003 409541710 397298730 6672155 470176875 130715044"/>
    </vehicle>
    <vehicle id="252" depart="252.00">
        <route edges="50515731 589551003 409541710 397298730"/>
    </vehicle>
    <vehicle id="253" depart="253.00">
        <route edges="6054631 6054631-AddedOffRampEdge 6280746"/>
    </vehicle>
    <vehicle id="255" depart="255.00">
        <route edges="50515731 589551003 409541710 397298730 6672155 470176875 130715044 6056826"/>
    </vehicle>
    <vehicle id="256" depart="256.00">
        <route edges="-50515736#1 6061634"/>
    </vehicle>
    <vehicle id="258" depart="258.00">
        <route edges="130714953 409541710 397298730 6672155 470176875"/>
    </vehicle>
    <vehicle id="259" depart="259.00">
        <route edges="6280746 589551003 409541710 397298730 6672155 470176875 130715044 6056826"/>
    </vehicle>
    <vehicle id="260" depart="260.00">
        <route edges="-6061634 -50515736#0 589551003 409541710 397298730"/>
    </vehicle>
    <vehicle id="264" depart="264.00">
        <route edges="6054631 6054631-AddedOffRampEdge 130714953 409541710 231628322"/>
    </vehicle>
    <vehicle id="266" depart="266.00">
        <route edges="-50515736#1 -50515736#0"/>
    </vehicle>
    <vehicle id="268" depart="268.00">
        <route edges="-50515736#0 589551003 409541710"/>
    </vehicle>
    <vehicle id="269" depart="269.00">
        <route edges="-50515734#0 6056826 130714951-AddedOnRampEdge"/>
    </vehicle>
    <vehicle id="274" depart="274.00">
        <route edges="130714953 409541710 397298730 6672155 470176875 6062713 130714951-AddedOnRampEdge"/>
    </vehicle>
    <vehicle id="275" depart="275.00">
        <route edges="-50515734#0 6056826"/>
    </vehicle>
    <vehicle id="277" depart="277.00">
        <route edges="-50515736#1 -50515736#0 589551003 409541710 397298730 6672155 470176875 6062713 130714951-AddedOnRampEdge"/>
    </vehicle>
    <vehicle id="279" depart="279.00">
        <route edges="6054631-AddedOffRampEdge 6280746 50515736#0"/>
    </vehicle>
    <vehicle id="280" depart="280.00">
        <route edges="50515736#0 6061634"/>
    </vehicle>
    <vehicle id="281" depart="281.00">
        <route edges="589551003"/>
    </vehicle>
    <vehicle id="282" depart="282.00">
        <route edges="231628321 gneE5 6672155 470176875 130715044 50515734#0 50515734#1"/>
    </vehicle>
    <vehicle id="284" depart="284.00">
        <route edges="50515731 589551003 409541710 397298730 6672155 470176875"/>
    </vehicle>
    <vehicle id="285" depart="285.00">
        <route edges="50515731 589551003 409541710 397298730 6672155 470176875 130715044 50515734#0 50515734#1"/>
    </vehicle>
    <vehicle id="288" depart="288.00">
        <route edges="397298730 6672155 470176875 6062713"/>
    </vehicle>
    <vehicle id="294" depart="294.00">
        <route edges="-50515736#1 6061634"/>
    </vehicle>
    <vehicle id="297" depart="297.00">
        <route edges="6054631-AddedOffRampEdge 6280746"/>
    </vehicle>
    <vehicle id="298" depart="298.00">
        <route edges="130715044 50515734#0 6059020"/>
    </vehicle>
    <vehicle id="299" depart="299.00">
        <route edges="6054631-AddedOffRampEdge 130714953 409541710 397298730 6672155 470176875 130715044 50515734#0 50515734#1"/>
    </vehicle>
    <vehicle id="301" depart="301.00">
        <route edges="130714953 409541710 397298730 6672155 470176875 130715044 50515734#0"/>
    </vehicle>
    <vehicle id="302" depart="302.00">
        <route edges="-50515736#0 589551003 409541710 397298730 6672155 470176875 6062713 130714951-AddedOnRampEdge 130714951"/>
    </vehicle>
    <vehicle id="303" depart="303.00">
        <route edges="-50515736#1 -50515736#0 589551003 409541710 397298730 6672155 470176875 130715044"/>
    </vehicle>
    <vehicle id="306" depart="306.00">
        <route edges="-50515736#0 589551003 409541710 397298730 6672155"/>
    </vehicle>
    <vehicle id="307" depart="307.00">
        <route edges="gneE5 6672155 470176875 130715044 6056826"/>
    </vehicle>
    <vehicle id="309" depart="309.00">
        <route edges="397298730 6672155 470176875 6062713 130714951-AddedOnRampEdge"/>
    </vehicle>
    <vehicle id="312" depart="312.00">
        <route edges="6280746 50515736#0 6061634"/>
    </vehicle>
    <vehicle id="316" depart="316.00">
        <route edges="6054631 6054631-AddedOffRampEdge 130714953 409541710 397298730 6672155 470176875 6062713 130714951-AddedOnRampEdge"/>
    </vehicle>
    <vehicle id="319" depart="319.00">
        <route edges="-50515736#1 -50515736#0 589551003 409541710 397298730 6672155 470176875 130715044 50515734#0"/>
    </vehicle>
    <vehicle id="320" depart="320.00">
        <route edges="397298730 6672155 470176875 130715044 50515734#0"/>
    </vehicle>
    <vehicle id="325" depart="325.00">
        <route edges="6672155 470176875 130715044 50515732"/>
    </vehicle>
    <vehicle id="326" depart="326.00">
        <route edges="6054631 6054631-AddedOffRampEdge 130714953 409541710 397298730 6672155 470176875"/>
    </vehicle>
    <vehicle id="329" depart="329.00">
        <route edges="6054631-AddedOffRampEdge 6280746 50515736#0"/>
    </vehicle>
    <vehicle id="330" depart="330.00">
        <route edges="-50515736#1 -50515736#0 589551003 409541710 231628322 -231628321"/>
    </vehicle>
    <vehicle id="332" depart="332.00">
        <route edges="6672155 470176875 130715044 50515734#0 6059020"/>
    </vehicle>
    <vehicle id="333" depart="333.00">
        <route edges="6280746"/>
    </vehicle>
    <vehicle id="334" depart="334.00">
        <route edges="-50515736#1 -50515736#0 589551003 409541710 397298730 6672155 470176875 6062713 130714951-AddedOnRampEdge"/>
    </vehicle>
    <vehicle id="335" depart="335.00">
        <route edges="-50515734#1 -50515734#0 6056826"/>
    </vehicle>
    <vehicle id="337" depart="337.00">
        <route edges="6280746 589551003 409541710 397298730 6672155 470176875 130715044"/>
    </vehicle>
    <vehicle id="340" depart="340.00">
        <route edges="130714953 409541710 397298730 6672155 470176875 6062713"/>
    </vehicle>
    <vehicle id="343" depart="343.00">
        <route edges="397298730 6672155 470176875 6062713"/>
    </vehicle>
    <vehicle id="346" depart="346.00">
        <route edges="-50515736#1 -50515736#0 589551003 409541710 231628322 -231628321"/>
    </vehicle>
    <vehicle id="349" depart="349.00">
        <route edges="6062713"/>
    </vehicle>
    <vehicle id="351" depart="351.00">
        <route edges="470176875 6062713"/>
    </vehicle>
    <vehicle id="352" depart="352.00">
        <route edges="6054631 6054631-AddedOffRampEdge 130714953 409541710 397298730 6672155 470176875 130715044 50515734#0 50515734#1"/>
    </vehicle>
    <vehicle id="353" depart="353.00">
        <route edges="-6061634 -50515736#0 589551003 409541710 231628322"/>
    </vehicle>
    <vehicle id="354" depart="354.00">
        <route edges="397298730 6672155 470176875 130715044 50515732"/>
    </vehicle>
    <vehicle id="364" depart="364.00">
        <route edges="gneE5 6672155 470176875 130715044"/>
    </vehicle>
    <vehicle id="366" depart="366.00">
        <route edges="-6059020 -50515734#0 6056826"/>
    </vehicle>
    <vehicle id="369" depart="369.00">
        <route edges="6054631-AddedOffRampEdge 130714953 409541710 397298730 6672155 470176875 6062713 130714951-AddedOnRampEdge"/>
    </vehicle>
    <vehicle id="371" depart="371.00">
        <route edges="-6061634 -50515736#0 589551003 409541710 231628322 -231628321"/>
    </vehicle>
    <vehicle id="372" depart="372.00">
        <route edges="130714953 409541710 231628322 -231628321"/>
    </vehicle>
    <vehicle id="380" depart="380.00">
        <route edges="6054631-AddedOffRampEdge 130714953 409541710 397298730 6672155 470176875 6062713 130714951-AddedOnRampEdge"/>
    </vehicle>
    <vehicle id="388" depart="388.00">
        <route edges="-6061634 -50515736#0 589551003 409541710 397298730 6672155 470176875 6062713 130714951-AddedOnRampEdge"/>
    </vehicle>
    <vehicle id="389" depart="389.00">
        <route edges="50515731 589551003 409541710 397298730 6672155 470176875 6062713 130714951-AddedOnRampEdge 130714951"/>
    </vehicle>
    <vehicle id="392" depart="392.00">
        <route edges="-50515734#0 6056826 130714951-AddedOnRampEdge 130714951"/>
    </vehicle>
    <vehicle id="396" depart="396.00">
        <route edges="6054631 6054631-AddedOffRampEdge 130714953 409541710 397298730 6672155 470176875 130715044 50515734#0 6059020"/>
    </vehicle>
    <vehicle id="397" depart="397.00">
        <route edges="-50515736#1 -50515736#0 589551003 409541710"/>
    </vehicle>
    <vehicle id="398" depart="398.00">
        <route edges="-50515736#0 589551003 409541710 397298730 6672155 470176875 6062713 130714951-AddedOnRampEdge"/>
    </vehicle>
    <vehicle id="399" depart="399.00">
        <route edges="50515731 589551003 409541710 231628322"/>
    </vehicle>
    <vehicle id="401" depart="401.00">
        <route edges="-6059020 -50515734#0"/>
    </vehicle>
    <vehicle id="403" depart="403.00">
        <route edges="6054631-AddedOffRampEdge 130714953 409541710 231628322"/>
    </vehicle>
    <vehicle id="407" depart="407.00">
        <route edges="6054631-AddedOffRampEdge 130714953 409541710 397298730 6672155 470176875 130715044 50515734#0"/>
    </vehicle>
    <vehicle id="408" depart="408.00">
        <route edges="6280746 589551003 409541710 397298730 6672155 470176875"/>
    </vehicle>
    <vehicle id="410" depart="410.00">
        <route edges="-6059020 -50515734#0"/>
    </vehicle>
    <vehicle id="414" depart="414.00">
        <route edges="6054631-AddedOffRampEdge 130714953 409541710 231628322"/>
    </vehicle>
    <vehicle id="415" depart="415.00">
        <route edges="130714953 409541710 397298730 6672155 470176875 130715044 50515732"/>
    </vehicle>
    <vehicle id="419" depart="419.00">
        <route edges="-50515734#0 6056826 130714951-AddedOnRampEdge"/>
    </vehicle>
    <vehicle id="420" depart="420.00">
        <route edges="-50515736#0 589551003 409541710 397298730 6672155 470176875 130715044 50515732"/>
    </vehicle>
    <vehicle id="421" depart="421.00">
        <route edges="-50515734#1 6059020"/>
    </vehicle>
    <vehicle id="422" depart="422.00">
        <route edges="-50515736#1 -50515736#0 589551003 409541710 397298730 6672155 470176875 130715044 50515734#0 6059020"/>
    </vehicle>
    <vehicle id="428" depart="428.00">
        <route edges="-6059020 50515734#1"/>
    </vehicle>
    <vehicle id="429" depart="429.00">
        <route edges="6054631 6054631-AddedOffRampEdge 130714953 409541710 397298730 6672155 470176875 130715044 50515734#0 50515734#1"/>
    </vehicle>
    <vehicle id="430" depart="430.00">
        <route edges="-50515736#1 -50515736#0 589551003 409541710 397298730 6672155 470176875"/>
    </vehicle>
    <vehicle id="432" depart="432.00">
        <route edges="-6061634 -50515736#0 589551003 409541710 397298730 6672155 470176875 130715044 50515734#0 6059020"/>
    </vehicle>
    <vehicle id="433" depart="433.00">
        <route edges="-50515736#0 589551003 409541710 397298730 6672155 470176875 130715044"/>
    </vehicle>
    <vehicle id="437" depart="437.00">
        <route edges="589551003 409541710 397298730 6672155 470176875 6062713 130714951-AddedOnRampEdge"/>
    </vehicle>
    <vehicle id="442" depart="442.00">
        <route edges="50515734#0 50515734#1"/>
    </vehicle>
    <vehicle id="443" depart="443.00">
        <route edges="130714953 409541710 231628322"/>
    </vehicle>
    <vehicle id="445" depart="445.00">
        <route edges="130714953 409541710 231628322"/>
    </vehicle>
    <vehicle id="446" depart="446.00">
        <route edges="130715044 50515734#0 6059020"/>
    </vehicle>
    <vehicle id="447" depart="447.00">
        <route edges="231628322 -231628321"/>
    </vehicle>
    <vehicle id="452" depart="452.00">
        <route edges="470176875"/>
    </vehicle>
    <vehicle id="453" depart="453.00">
        <route edges="gneE5 6672155 470176875 130715044 50515734#0 50515734#1"/>
    </vehicle>
    <vehicle id="454" depart="454.00">
        <route edges="-6061634 -50515736#0 589551003 409541710 397298730 6672155 470176875 130715044 50515734#0 6059020"/>
    </vehicle>
    <vehicle id="455" depart="455.00">
        <route edges="50515734#0"/>
    </vehicle>
    <vehicle id="456" depart="456.00">
        <route edges="231628321 gneE5 6672155 470176875 130715044 50515734#0 6059020"/>
    </vehicle>
    <vehicle id="457" depart="457.00">
        <route edges="-50515736#0 589551003"/>
    </vehicle>
    <vehicle id="459" depart="459.00">
        <route edges="130714953 409541710 397298730 6672155 470176875 130715044 6056826"/>
    </vehicle>
    <vehicle id="462" depart="462.00">
        <route edges="-6061634 -50515736#0 589551003 409541710 397298730 6672155 470176875 130715044 50515734#0 50515734#1"/>
    </vehicle>
    <vehicle id="465" depart="465.00">
        <route edges="6280746 589551003 409541710 397298730 6672155 470176875 130715044 50515734#0 50515734#1"/>
    </vehicle>
    <vehicle id="468" depart="468.00">
        <route edges="130714953 409541710 397298730 6672155 470176875 130715044 50515734#0 50515734#1"/>
    </vehicle>
    <vehicle id="470" depart="470.00">
        <route edges="-6061634 -50515736#0 589551003 409541710 397298730 6672155 470176875 6062713"/>
    </vehicle>
    <vehicle id="471" depart="471.00">
        <route edges="409541710 397298730 6672155 470176875 130715044 6056826"/>
    </vehicle>
    <vehicle id="475" depart="475.00">
        <route edges="231628322 -231628321"/>
    </vehicle>
    <vehicle id="476" depart="476.00">
        <route edges="50515731 50515736#0 50515736#1"/>
    </vehicle>
    <vehicle id="478" depart="478.00">
        <route edges="589551003 409541710 397298730 6672155 470176875"/>
    </vehicle>
    <vehicle id="479" depart="479.00">
        <route edges="231628321 gneE5"/>
    </vehicle>
    <vehicle id="481" depart="481.00">
        <route edges="470176875 130715044"/>
    </vehicle>
    <vehicle id="489" depart="489.00">