<additional>
	<tlLogic id="gneJ1" offset="0" programID="custom" type="static">
		<phase duration="28.711" state="rrGGGg" />
		<phase duration="1.289" state="rryyyg" />
		<phase duration="28.711" state="rrrrrG" />
		<phase duration="1.289" state="rrrrry" />
		<phase duration="28.711" state="GGGrGr" />
		<phase duration="1.289" state="yyyryr" />
	</tlLogic>
	<edgeData file="tIntersection_traffic.dump.xml" freq="20" id="Traffic Measures" />
	<edgeData file="tIntersection_pollution.dump.xml" freq="20" id="Emission Data" type="emissions" />
	<edgeData file="tIntersection_noise.dump.xml" freq="20" id="Noise Data" type="harmonoise" />
</additional>