<?xml version="1.0" encoding="UTF-8"?>

<!-- generated on 09/26/18 09:28:07 by Eclipse SUMO duarouter Version 1.0.0
<configuration xmlns:xsi="http://www.w3.org/2001/XMLSchema-instance" xsi:noNamespaceSchemaLocation="http://sumo.dlr.de/xsd/duarouterConfiguration.xsd">

    <input>
        <net-file value="2way.net.xml"/>
        <route-files value="trips.trips.xml"/>
    </input>

    <output>
        <output-file value="2way.rou.xml"/>
        <alternatives-output value="2way.rou.alt.xml"/>
    </output>

    <time>
        <begin value="0"/>
        <end value="3600"/>
    </time>

    <report>
        <no-warnings value="true"/>
        <ignore-errors value="true"/>
        <no-step-log value="true"/>
    </report>

</configuration>
-->

<routes xmlns:xsi="http://www.w3.org/2001/XMLSchema-instance" xsi:noNamespaceSchemaLocation="http://sumo.dlr.de/xsd/routes_file.xsd">
    <vehicle id="0" depart="1.00">
        <route edges="6055187#0 215306712#1"/>
    </vehicle>
    <vehicle id="1" depart="1.00">
        <route edges="6055187#0 215306712#1"/>
    </vehicle>
    <vehicle id="2" depart="1.00">
        <route edges="-6055187#2 -6055187#1"/>
    </vehicle>
    <vehicle id="4" depart="1.00">
        <route edges="-6055187#2 215306712#1"/>
    </vehicle>
    <vehicle id="5" depart="1.00">
        <route edges="6055187#0 215306712#1"/>
    </vehicle>
    <vehicle id="6" depart="1.00">
        <route edges="215306712#0 215306712#1"/>
    </vehicle>
    <vehicle id="8" depart="1.00">
        <route edges="215306712#0 6055187#2"/>
    </vehicle>
    <vehicle id="9" depart="1.00">
        <route edges="215306712#0 -6055187#1"/>
    </vehicle>
    <vehicle id="10" depart="1.00">
        <route edges="215306712#0 -6055187#1"/>
    </vehicle>
    <vehicle id="12" depart="1.00">
        <route edges="-6055187#2 215306712#1"/>
    </vehicle>
    <vehicle id="13" depart="1.00">
        <route edges="215306712#0 -6055187#1"/>
    </vehicle>
    <vehicle id="14" depart="1.00">
        <route edges="215306712#0 215306712#1"/>
    </vehicle>
    <vehicle id="15" depart="1.00">
        <route edges="-6055187#2 215306712#1"/>
    </vehicle>
    <vehicle id="16" depart="1.00">
        <route edges="6055187#0 6055187#2"/>
    </vehicle>
    <vehicle id="17" depart="1.00">
        <route edges="-6055187#2 -6055187#1"/>
    </vehicle>
    <vehicle id="18" depart="1.00">
        <route edges="215306712#0 -6055187#1"/>
    </vehicle>
    <vehicle id="19" depart="1.00">
        <route edges="-6055187#2 -6055187#1"/>
    </vehicle>
    <vehicle id="21" depart="1.00">
        <route edges="-6055187#2 -6055187#1"/>
    </vehicle>
    <vehicle id="22" depart="1.00">
        <route edges="-6055187#2 -6055187#1"/>
    </vehicle>
    <vehicle id="23" depart="1.00">
        <route edges="-6055187#2 215306712#1"/>
    </vehicle>
    <vehicle id="24" depart="1.00">
        <route edges="215306712#0 215306712#1"/>
    </vehicle>
    <vehicle id="27" depart="1.00">
        <route edges="215306712#0 -6055187#1"/>
    </vehicle>
    <vehicle id="31" depart="1.00">
        <route edges="6055187#0 6055187#2"/>
    </vehicle>
    <vehicle id="33" depart="1.00">
        <route edges="-6055187#2 215306712#1"/>
    </vehicle>
    <vehicle id="34" depart="1.00">
        <route edges="6055187#0 6055187#2"/>
    </vehicle>
    <vehicle id="35" depart="1.00">
        <route edges="-6055187#2 215306712#1"/>
    </vehicle>
    <vehicle id="36" depart="1.00">
        <route edges="6055187#0 215306712#1"/>
    </vehicle>
    <vehicle id="38" depart="1.00">
        <route edges="-6055187#2 215306712#1"/>
    </vehicle>
    <vehicle id="40" depart="1.00">
        <route edges="215306712#0 215306712#1"/>
    </vehicle>
    <vehicle id="41" depart="1.00">
        <route edges="-6055187#2 -6055187#1"/>
    </vehicle>
    <vehicle id="42" depart="1.00">
        <route edges="215306712#0 6055187#2"/>
    </vehicle>
    <vehicle id="43" depart="1.00">
        <route edges="-6055187#2 215306712#1"/>
    </vehicle>
    <vehicle id="44" depart="1.00">
        <route edges="215306712#0 -6055187#1"/>
    </vehicle>
    <vehicle id="45" depart="1.00">
        <route edges="-6055187#2 -6055187#1"/>
    </vehicle>
    <vehicle id="46" depart="1.00">
        <route edges="215306712#0 6055187#2"/>
    </vehicle>
    <vehicle id="48" depart="1.00">
        <route edges="215306712#0 -6055187#1"/>
    </vehicle>
    <vehicle id="50" depart="1.00">
        <route edges="215306712#0 -6055187#1"/>
    </vehicle>
    <vehicle id="51" depart="1.00">
        <route edges="215306712#0 -6055187#1"/>
    </vehicle>
    <vehicle id="52" depart="1.00">
        <route edges="-6055187#2 215306712#1"/>
    </vehicle>
    <vehicle id="53" depart="1.00">
        <route edges="-6055187#2 215306712#1"/>
    </vehicle>
    <vehicle id="54" depart="1.00">
        <route edges="-6055187#2 215306712#1"/>
    </vehicle>
    <vehicle id="57" depart="1.00">
        <route edges="215306712#0 215306712#1"/>
    </vehicle>
    <vehicle id="58" depart="1.00">
        <route edges="-6055187#2 -6055187#1"/>
    </vehicle>
    <vehicle id="59" depart="1.00">
        <route edges="6055187#0 6055187#2"/>
    </vehicle>
    <vehicle id="60" depart="1.00">
        <route edges="6055187#0 215306712#1"/>
    </vehicle>
    <vehicle id="61" depart="1.00">
        <route edges="6055187#0 215306712#1"/>
    </vehicle>
    <vehicle id="62" depart="1.00">
        <route edges="215306712#0 -6055187#1"/>
    </vehicle>
    <vehicle id="64" depart="1.00">
        <route edges="6055187#0 215306712#1"/>
    </vehicle>
    <vehicle id="66" depart="1.00">
        <route edges="6055187#0 215306712#1"/>
    </vehicle>
    <vehicle id="67" depart="1.00">
        <route edges="215306712#0 -6055187#1"/>
    </vehicle>
    <vehicle id="68" depart="1.00">
        <route edges="6055187#0 215306712#1"/>
    </vehicle>
    <vehicle id="70" depart="1.00">
        <route edges="-6055187#2 -6055187#1"/>
    </vehicle>
    <vehicle id="71" depart="1.00">
        <route edges="6055187#0 6055187#2"/>
    </vehicle>
    <vehicle id="72" depart="1.00">
        <route edges="215306712#0 215306712#1"/>
    </vehicle>
    <vehicle id="73" depart="1.00">
        <route edges="215306712#0 215306712#1"/>
    </vehicle>
    <vehicle id="74" depart="1.00">
        <route edges="215306712#0 6055187#2"/>
    </vehicle>
    <vehicle id="75" depart="1.00">
        <route edges="215306712#0 -6055187#1"/>
    </vehicle>
    <vehicle id="76" depart="1.00">
        <route edges="6055187#0 6055187#2"/>
    </vehicle>
    <vehicle id="77" depart="1.00">
        <route edges="215306712#0 215306712#1"/>
    </vehicle>
    <vehicle id="80" depart="1.00">
        <route edges="-6055187#2 -6055187#1"/>
    </vehicle>
    <vehicle id="81" depart="1.00">
        <route edges="6055187#0 215306712#1"/>
    </vehicle>
    <vehicle id="82" depart="1.00">
        <route edges="6055187#0 215306712#1"/>
    </vehicle>
    <vehicle id="83" depart="1.00">
        <route edges="215306712#0 -6055187#1"/>
    </vehicle>
    <vehicle id="84" depart="1.00">
        <route edges="-6055187#2 -6055187#1"/>
    </vehicle>
    <vehicle id="85" depart="1.00">
        <route edges="6055187#0 6055187#2"/>
    </vehicle>
    <vehicle id="86" depart="1.00">
        <route edges="215306712#0 6055187#2"/>
    </vehicle>
    <vehicle id="87" depart="1.00">
        <route edges="215306712#0 -6055187#1"/>
    </vehicle>
    <vehicle id="88" depart="1.00">
        <route edges="-6055187#2 215306712#1"/>
    </vehicle>
    <vehicle id="89" depart="1.00">
        <route edges="6055187#0 6055187#2"/>
    </vehicle>
    <vehicle id="90" depart="1.00">
        <route edges="6055187#0 215306712#1"/>
    </vehicle>
    <vehicle id="91" depart="1.00">
        <route edges="-6055187#2 -6055187#1"/>
    </vehicle>
    <vehicle id="92" depart="1.00">
        <route edges="215306712#0 215306712#1"/>
    </vehicle>
    <vehicle id="93" depart="1.00">
        <route edges="-6055187#2 -6055187#1"/>
    </vehicle>
    <vehicle id="94" depart="1.00">
        <route edges="-6055187#2 -6055187#1"/>
    </vehicle>
    <vehicle id="95" depart="1.00">
        <route edges="6055187#0 6055187#2"/>
    </vehicle>
    <vehicle id="97" depart="1.00">
        <route edges="6055187#0 6055187#2"/>
    </vehicle>
    <vehicle id="98" depart="1.00">
        <route edges="215306712#0 -6055187#1"/>
    </vehicle>
    <vehicle id="103" depart="1.00">
        <route edges="-6055187#2 -6055187#1"/>
    </vehicle>
    <vehicle id="105" depart="1.00">
        <route edges="6055187#0 215306712#1"/>
    </vehicle>
    <vehicle id="107" depart="1.00">
        <route edges="-6055187#2 215306712#1"/>
    </vehicle>
    <vehicle id="108" depart="1.00">
        <route edges="-6055187#2 215306712#1"/>
    </vehicle>
    <vehicle id="109" depart="1.00">
        <route edges="-6055187#2 -6055187#1"/>
    </vehicle>
    <vehicle id="110" depart="1.00">
        <route edges="215306712#0 6055187#2"/>
    </vehicle>
    <vehicle id="111" depart="1.00">
        <route edges="6055187#0 6055187#2"/>
    </vehicle>
    <vehicle id="112" depart="1.00">
        <route edges="-6055187#2 -6055187#1"/>
    </vehicle>
    <vehicle id="113" depart="1.00">
        <route edges="215306712#0 -6055187#1"/>
    </vehicle>
    <vehicle id="115" depart="1.00">
        <route edges="215306712#0 215306712#1"/>
    </vehicle>
    <vehicle id="116" depart="1.00">
        <route edges="-6055187#2 215306712#1"/>
    </vehicle>
    <vehicle id="117" depart="1.00">
        <route edges="-6055187#2 -6055187#1"/>
    </vehicle>
    <vehicle id="118" depart="1.00">
        <route edges="6055187#0 215306712#1"/>
    </vehicle>
    <vehicle id="119" depart="1.00">
        <route edges="-6055187#2 -6055187#1"/>
    </vehicle>
    <vehicle id="120" depart="1.00">
        <route edges="215306712#0 6055187#2"/>
    </vehicle>
    <vehicle id="121" depart="1.00">
        <route edges="215306712#0 -6055187#1"/>
    </vehicle>
    <vehicle id="122" depart="1.00">
        <route edges="215306712#0 -6055187#1"/>
    </vehicle>
    <vehicle id="123" depart="1.00">
        <route edges="6055187#0 215306712#1"/>
    </vehicle>
    <vehicle id="124" depart="1.00">
        <route edges="215306712#0 215306712#1"/>
    </vehicle>
    <vehicle id="125" depart="1.00">
        <route edges="6055187#0 6055187#2"/>
    </vehicle>
    <vehicle id="126" depart="1.00">
        <route edges="-6055187#2 215306712#1"/>
    </vehicle>
    <vehicle id="127" depart="1.00">
        <route edges="215306712#0 6055187#2"/>
    </vehicle>
    <vehicle id="128" depart="1.00">
        <route edges="215306712#0 6055187#2"/>
    </vehicle>
    <vehicle id="129" depart="1.00">
        <route edges="6055187#0 215306712#1"/>
    </vehicle>
    <vehicle id="130" depart="1.00">
        <route edges="215306712#0 215306712#1"/>
    </vehicle>
    <vehicle id="132" depart="1.00">
        <route edges="-6055187#2 -6055187#1"/>
    </vehicle>
    <vehicle id="133" depart="1.00">
        <route edges="215306712#0 6055187#2"/>
    </vehicle>
    <vehicle id="134" depart="1.00">
        <route edges="215306712#0 215306712#1"/>
    </vehicle>
    <vehicle id="135" depart="1.00">
        <route edges="-6055187#2 215306712#1"/>
    </vehicle>
    <vehicle id="136" depart="1.00">
        <route edges="-6055187#2 215306712#1"/>
    </vehicle>
    <vehicle id="137" depart="1.00">
        <route edges="215306712#0 6055187#2"/>
    </vehicle>
    <vehicle id="139" depart="1.00">
        <route edges="6055187#0 6055187#2"/>
    </vehicle>
    <vehicle id="142" depart="1.00">
        <route edges="215306712#0 6055187#2"/>
    </vehicle>
    <vehicle id="143" depart="1.00">
        <route edges="215306712#0 -6055187#1"/>
    </vehicle>
    <vehicle id="144" depart="1.00">
        <route edges="-6055187#2 215306712#1"/>
    </vehicle>
    <vehicle id="145" depart="1.00">
        <route edges="215306712#0 6055187#2"/>
    </vehicle>
    <vehicle id="146" depart="1.00">
        <route edges="215306712#0 6055187#2"/>
    </vehicle>
    <vehicle id="147" depart="1.00">
        <route edges="6055187#0 215306712#1"/>
    </vehicle>
    <vehicle id="148" depart="1.00">
        <route edges="215306712#0 6055187#2"/>
    </vehicle>
    <vehicle id="149" depart="1.00">
        <route edges="6055187#0 215306712#1"/>
    </vehicle>
    <vehicle id="150" depart="1.00">
        <route edges="215306712#0 -6055187#1"/>
    </vehicle>
    <vehicle id="151" depart="1.00">
        <route edges="-6055187#2 215306712#1"/>
    </vehicle>
    <vehicle id="152" depart="1.00">
        <route edges="215306712#0 6055187#2"/>
    </vehicle>
    <vehicle id="154" depart="1.00">
        <route edges="215306712#0 6055187#2"/>
    </vehicle>
    <vehicle id="155" depart="1.00">
        <route edges="215306712#0 -6055187#1"/>
    </vehicle>
    <vehicle id="156" depart="1.00">
        <route edges="-6055187#2 -6055187#1"/>
    </vehicle>
    <vehicle id="157" depart="1.00">
        <route edges="6055187#0 6055187#2"/>
    </vehicle>
    <vehicle id="158" depart="1.00">
        <route edges="215306712#0 6055187#2"/>
    </vehicle>
    <vehicle id="160" depart="1.00">
        <route edges="215306712#0 215306712#1"/>
    </vehicle>
    <vehicle id="161" depart="1.00">
        <route edges="-6055187#2 215306712#1"/>
    </vehicle>
    <vehicle id="162" depart="1.00">
        <route edges="215306712#0 -6055187#1"/>
    </vehicle>
    <vehicle id="163" depart="1.00">
        <route edges="-6055187#2 215306712#1"/>
    </vehicle>
    <vehicle id="164" depart="1.00">
        <route edges="6055187#0 215306712#1"/>
    </vehicle>
    <vehicle id="165" depart="1.00">
        <route edges="6055187#0 215306712#1"/>
    </vehicle>
    <vehicle id="166" depart="1.00">
        <route edges="6055187#0 215306712#1"/>
    </vehicle>
    <vehicle id="167" depart="1.00">
        <route edges="215306712#0 215306712#1"/>
    </vehicle>
    <vehicle id="169" depart="1.00">
        <route edges="-6055187#2 215306712#1"/>
    </vehicle>
    <vehicle id="170" depart="1.00">
        <route edges="215306712#0 6055187#2"/>
    </vehicle>
    <vehicle id="172" depart="1.00">
        <route edges="215306712#0 6055187#2"/>
    </vehicle>
    <vehicle id="173" depart="1.00">
        <route edges="6055187#0 215306712#1"/>
    </vehicle>
    <vehicle id="174" depart="1.00">
        <route edges="6055187#0 6055187#2"/>
    </vehicle>
    <vehicle id="175" depart="1.00">
        <route edges="215306712#0 -6055187#1"/>
    </vehicle>
    <vehicle id="176" depart="1.00">
        <route edges="215306712#0 215306712#1"/>
    </vehicle>
    <vehicle id="177" depart="1.00">
        <route edges="-6055187#2 215306712#1"/>
    </vehicle>
    <vehicle id="178" depart="1.00">
        <route edges="215306712#0 -6055187#1"/>
    </vehicle>
    <vehicle id="179" depart="1.00">
        <route edges="215306712#0 215306712#1"/>
    </vehicle>
    <vehicle id="180" depart="1.00">
        <route edges="215306712#0 -6055187#1"/>
    </vehicle>
    <vehicle id="181" depart="1.00">
        <route edges="6055187#0 6055187#2"/>
    </vehicle>
    <vehicle id="183" depart="1.00">
        <route edges="6055187#0 215306712#1"/>
    </vehicle>
    <vehicle id="186" depart="1.00">
        <route edges="-6055187#2 -6055187#1"/>
    </vehicle>
    <vehicle id="187" depart="1.00">
        <route edges="-6055187#2 215306712#1"/>
    </vehicle>
    <vehicle id="188" depart="1.00">
        <route edges="215306712#0 -6055187#1"/>
    </vehicle>
    <vehicle id="189" depart="1.00">
        <route edges="-6055187#2 215306712#1"/>
    </vehicle>
    <vehicle id="190" depart="1.00">
        <route edges="6055187#0 6055187#2"/>
    </vehicle>
    <vehicle id="191" depart="1.00">
        <route edges="6055187#0 6055187#2"/>
    </vehicle>
    <vehicle id="192" depart="1.00">
        <route edges="-6055187#2 -6055187#1"/>
    </vehicle>
    <vehicle id="193" depart="1.00">
        <route edges="215306712#0 215306712#1"/>
    </vehicle>
    <vehicle id="194" depart="1.00">
        <route edges="6055187#0 215306712#1"/>
    </vehicle>
    <vehicle id="195" depart="1.00">
        <route edges="6055187#0 215306712#1"/>
    </vehicle>
    <vehicle id="197" depart="1.00">
        <route edges="215306712#0 -6055187#1"/>
    </vehicle>
    <vehicle id="198" depart="1.00">
        <route edges="-6055187#2 215306712#1"/>
    </vehicle>
    <vehicle id="199" depart="1.00">
        <route edges="6055187#0 215306712#1"/>
    </vehicle>
    <vehicle id="201" depart="1.00">
        <route edges="215306712#0 -6055187#1"/>
    </vehicle>
    <vehicle id="202" depart="1.00">
        <route edges="-6055187#2 -6055187#1"/>
    </vehicle>
    <vehicle id="203" depart="1.00">
        <route edges="-6055187#2 215306712#1"/>
    </vehicle>
    <vehicle id="205" depart="1.00">
        <route edges="6055187#0 6055187#2"/>
    </vehicle>
    <vehicle id="206" depart="1.00">
        <route edges="215306712#0 6055187#2"/>
    </vehicle>
    <vehicle id="207" depart="1.00">
        <route edges="215306712#0 -6055187#1"/>
    </vehicle>
    <vehicle id="208" depart="1.00">
        <route edges="-6055187#2 215306712#1"/>
    </vehicle>
    <vehicle id="209" depart="1.00">
        <route edges="215306712#0 215306712#1"/>
    </vehicle>
    <vehicle id="210" depart="1.00">
        <route edges="6055187#0 215306712#1"/>
    </vehicle>
    <vehicle id="212" depart="1.00">
        <route edges="215306712#0 215306712#1"/>
    </vehicle>
    <vehicle id="213" depart="1.00">
        <route edges="6055187#0 6055187#2"/>
    </vehicle>
    <vehicle id="214" depart="1.00">
        <route edges="6055187#0 215306712#1"/>
    </vehicle>
    <vehicle id="216" depart="1.00">
        <route edges="215306712#0 -6055187#1"/>
    </vehicle>
    <vehicle id="217" depart="1.00">
        <route edges="-6055187#2 215306712#1"/>
    </vehicle>
    <vehicle id="218" depart="1.00">
        <route edges="-6055187#2 215306712#1"/>
    </vehicle>
    <vehicle id="219" depart="1.00">
        <route edges="215306712#0 215306712#1"/>
    </vehicle>
    <vehicle id="220" depart="1.00">
        <route edges="-6055187#2 215306712#1"/>
    </vehicle>
    <vehicle id="221" depart="1.00">
        <route edges="-6055187#2 -6055187#1"/>
    </vehicle>
    <vehicle id="222" depart="1.00">
        <route edges="6055187#0 215306712#1"/>
    </vehicle>
    <vehicle id="223" depart="1.00">
        <route edges="6055187#0 215306712#1"/>
    </vehicle>
    <vehicle id="225" depart="1.00">
        <route edges="215306712#0 215306712#1"/>
    </vehicle>
    <vehicle id="226" depart="1.00">
        <route edges="6055187#0 215306712#1"/>
    </vehicle>
    <vehicle id="228" depart="1.00">
        <route edges="6055187#0 215306712#1"/>
    </vehicle>
    <vehicle id="229" depart="1.00">
        <route edges="-6055187#2 215306712#1"/>
    </vehicle>
    <vehicle id="231" depart="1.00">
        <route edges="215306712#0 215306712#1"/>
    </vehicle>
    <vehicle id="232" depart="1.00">
        <route edges="-6055187#2 215306712#1"/>
    </vehicle>
    <vehicle id="233" depart="1.00">
        <route edges="215306712#0 6055187#2"/>
    </vehicle>
    <vehicle id="234" depart="1.00">
        <route edges="215306712#0 215306712#1"/>
    </vehicle>
    <vehicle id="236" depart="1.00">
        <route edges="215306712#0 215306712#1"/>
    </vehicle>
    <vehicle id="237" depart="1.00">
        <route edges="6055187#0 215306712#1"/>
    </vehicle>
    <vehicle id="238" depart="1.00">
        <route edges="-6055187#2 -6055187#1"/>
    </vehicle>
    <vehicle id="239" depart="1.00">
        <route edges="6055187#0 215306712#1"/>
    </vehicle>
    <vehicle id="240" depart="1.00">
        <route edges="6055187#0 6055187#2"/>
    </vehicle>
    <vehicle id="241" depart="1.00">
        <route edges="215306712#0 215306712#1"/>
    </vehicle>
    <vehicle id="244" depart="1.00">
        <route edges="215306712#0 215306712#1"/>
    </vehicle>
    <vehicle id="245" depart="1.00">
        <route edges="-6055187#2 215306712#1"/>
    </vehicle>
    <vehicle id="247" depart="1.00">
        <route edges="215306712#0 215306712#1"/>
    </vehicle>
    <vehicle id="248" depart="1.00">
        <route edges="215306712#0 -6055187#1"/>
    </vehicle>
    <vehicle id="249" depart="1.00">
        <route edges="215306712#0 215306712#1"/>
    </vehicle>
    <vehicle id="250" depart="1.00">
        <route edges="6055187#0 6055187#2"/>
    </vehicle>
    <vehicle id="251" depart="1.00">
        <route edges="215306712#0 -6055187#1"/>
    </vehicle>
    <vehicle id="252" depart="1.00">
        <route edges="6055187#0 215306712#1"/>
    </vehicle>
    <vehicle id="253" depart="1.00">
        <route edges="215306712#0 -6055187#1"/>
    </vehicle>
    <vehicle id="255" depart="1.00">
        <route edges="215306712#0 -6055187#1"/>
    </vehicle>
    <vehicle id="256" depart="1.00">
        <route edges="215306712#0 215306712#1"/>
    </vehicle>
    <vehicle id="257" depart="1.00">
        <route edges="6055187#0 6055187#2"/>
    </vehicle>
    <vehicle id="258" depart="1.00">
        <route edges="-6055187#2 215306712#1"/>
    </vehicle>
    <vehicle id="259" depart="1.00">
        <route edges="-6055187#2 215306712#1"/>
    </vehicle>
    <vehicle id="260" depart="1.00">
        <route edges="215306712#0 -6055187#1"/>
    </vehicle>
    <vehicle id="261" depart="1.00">
        <route edges="6055187#0 6055187#2"/>
    </vehicle>
    <vehicle id="262" depart="1.00">
        <route edges="215306712#0 6055187#2"/>
    </vehicle>
    <vehicle id="264" depart="1.00">
        <route edges="-6055187#2 215306712#1"/>
    </vehicle>
    <vehicle id="266" depart="1.00">
        <route edges="215306712#0 215306712#1"/>
    </vehicle>
    <vehicle id="267" depart="1.00">
        <route edges="6055187#0 215306712#1"/>
    </vehicle>
    <vehicle id="268" depart="1.00">
        <route edges="-6055187#2 215306712#1"/>
    </vehicle>
    <vehicle id="270" depart="1.00">
        <route edges="215306712#0 215306712#1"/>
    </vehicle>
    <vehicle id="271" depart="1.00">
        <route edges="6055187#0 215306712#1"/>
    </vehicle>
    <vehicle id="272" depart="1.00">
        <route edges="6055187#0 6055187#2"/>
    </vehicle>
    <vehicle id="273" depart="1.00">
        <route edges="-6055187#2 -6055187#1"/>
    </vehicle>
    <vehicle id="274" depart="1.00">
        <route edges="-6055187#2 -6055187#1"/>
    </vehicle>
    <vehicle id="275" depart="1.00">
        <route edges="215306712#0 6055187#2"/>
    </vehicle>
    <vehicle id="277" depart="1.00">
        <route edges="215306712#0 -6055187#1"/>
    </vehicle>
    <vehicle id="278" depart="1.00">
        <route edges="6055187#0 6055187#2"/>
    </vehicle>
    <vehicle id="279" depart="1.00">
        <route edges="-6055187#2 -6055187#1"/>
    </vehicle>
    <vehicle id="280" depart="1.00">
        <route edges="215306712#0 6055187#2"/>
    </vehicle>
    <vehicle id="281" depart="1.00">
        <route edges="-6055187#2 215306712#1"/>
    </vehicle>
    <vehicle id="283" depart="1.00">
        <route edges="215306712#0 -6055187#1"/>
    </vehicle>
    <vehicle id="285" depart="1.00">
        <route edges="215306712#0 6055187#2"/>
    </vehicle>
    <vehicle id="286" depart="1.00">
        <route edges="215306712#0 215306712#1"/>
    </vehicle>
    <vehicle id="287" depart="1.00">
        <route edges="-6055187#2 -6055187#1"/>
    </vehicle>
    <vehicle id="289" depart="1.00">
        <route edges="215306712#0 215306712#1"/>
    </vehicle>
    <vehicle id="290" depart="1.00">
        <route edges="-6055187#2 215306712#1"/>
    </vehicle>
    <vehicle id="292" depart="1.00">
        <route edges="6055187#0 6055187#2"/>
    </vehicle>
    <vehicle id="293" depart="1.00">
        <route edges="215306712#0 -6055187#1"/>
    </vehicle>
    <vehicle id="296" depart="1.00">
        <route edges="-6055187#2 215306712#1"/>
    </vehicle>
    <vehicle id="298" depart="1.00">
        <route edges="-6055187#2 -6055187#1"/>
    </vehicle>
    <vehicle id="299" depart="1.00">
        <route edges="6055187#0 6055187#2"/>
    </vehicle>
    <vehicle id="300" depart="1.00">
        <route edges="6055187#0 6055187#2"/>
    </vehicle>
    <vehicle id="302" depart="1.00">
        <route edges="215306712#0 215306712#1"/>
    </vehicle>
    <vehicle id="303" depart="1.00">
        <route edges="-6055187#2 -6055187#1"/>
    </vehicle>
    <vehicle id="304" depart="1.00">
        <route edges="215306712#0 6055187#2"/>
    </vehicle>
    <vehicle id="305" depart="1.00">
        <route edges="-6055187#2 215306712#1"/>
    </vehicle>
    <vehicle id="306" depart="1.00">
        <route edges="215306712#0 -6055187#1"/>
    </vehicle>
    <vehicle id="307" depart="1.00">
        <route edges="-6055187#2 -6055187#1"/>
    </vehicle>
    <vehicle id="311" depart="1.00">
        <route edges="215306712#0 6055187#2"/>
    </vehicle>
    <vehicle id="312" depart="1.00">
        <route edges="6055187#0 6055187#2"/>
    </vehicle>
    <vehicle id="313" depart="1.00">
        <route edges="215306712#0 215306712#1"/>
    </vehicle>
    <vehicle id="314" depart="1.00">
        <route edges="215306712#0 -6055187#1"/>
    </vehicle>
    <vehicle id="315" depart="1.00">
        <route edges="6055187#0 215306712#1"/>
    </vehicle>
    <vehicle id="316" depart="1.00">
        <route edges="-6055187#2 215306712#1"/>
    </vehicle>
    <vehicle id="317" depart="1.00">
        <route edges="-6055187#2 215306712#1"/>
    </vehicle>
    <vehicle id="320" depart="1.00">
        <route edges="215306712#0 6055187#2"/>
    </vehicle>
    <vehicle id="321" depart="1.00">
        <route edges="6055187#0 6055187#2"/>
    </vehicle>
    <vehicle id="323" depart="1.00">
        <route edges="-6055187#2 215306712#1"/>
    </vehicle>
    <vehicle id="324" depart="1.00">
        <route edges="215306712#0 6055187#2"/>
    </vehicle>
    <vehicle id="325" depart="1.00">
        <route edges="215306712#0 215306712#1"/>
    </vehicle>
    <vehicle id="326" depart="1.00">
        <route edges="215306712#0 6055187#2"/>
    </vehicle>
    <vehicle id="327" depart="1.00">
        <route edges="215306712#0 6055187#2"/>
    </vehicle>
    <vehicle id="328" depart="1.00">
        <route edges="215306712#0 215306712#1"/>
    </vehicle>
    <vehicle id="329" depart="1.00">
        <route edges="215306712#0 6055187#2"/>
    </vehicle>
    <vehicle id="330" depart="1.00">
        <route edges="-6055187#2 -6055187#1"/>
    </vehicle>
    <vehicle id="331" depart="1.00">
        <route edges="6055187#0 215306712#1"/>
    </vehicle>
    <vehicle id="332" depart="1.00">
        <route edges="215306712#0 -6055187#1"/>
    </vehicle>
    <vehicle id="333" depart="1.00">
        <route edges="215306712#0 6055187#2"/>
    </vehicle>
    <vehicle id="334" depart="1.00">
        <route edges="215306712#0 6055187#2"/>
    </vehicle>
    <vehicle id="335" depart="1.00">
        <route edges="215306712#0 6055187#2"/>
    </vehicle>
    <vehicle id="336" depart="1.00">
        <route edges="215306712#0 6055187#2"/>
    </vehicle>
    <vehicle id="338" depart="1.00">
        <route edges="215306712#0 6055187#2"/>
    </vehicle>
    <vehicle id="341" depart="1.00">
        <route edges="6055187#0 215306712#1"/>
    </vehicle>
    <vehicle id="342" depart="1.00">
        <route edges="215306712#0 -6055187#1"/>
    </vehicle>
    <vehicle id="343" depart="1.00">
        <route edges="215306712#0 -6055187#1"/>
    </vehicle>
    <vehicle id="346" depart="1.00">
        <route edges="215306712#0 -6055187#1"/>
    </vehicle>
    <vehicle id="348" depart="1.00">
        <route edges="215306712#0 215306712#1"/>
    </vehicle>
    <vehicle id="349" depart="1.00">
        <route edges="6055187#0 6055187#2"/>
    </vehicle>
    <vehicle id="350" depart="1.00">
        <route edges="6055187#0 6055187#2"/>
    </vehicle>
    <vehicle id="351" depart="1.00">
        <route edges="6055187#0 215306712#1"/>
    </vehicle>
    <vehicle id="353" depart="1.00">
        <route edges="-6055187#2 215306712#1"/>
    </vehicle>
    <vehicle id="354" depart="1.00">
        <route edges="-6055187#2 215306712#1"/>
    </vehicle>
    <vehicle id="355" depart="1.00">
        <route edges="215306712#0 -6055187#1"/>
    </vehicle>
    <vehicle id="356" depart="1.00">
        <route edges="215306712#0 -6055187#1"/>
    </vehicle>
    <vehicle id="358" depart="1.00">
        <route edges="215306712#0 215306712#1"/>
    </vehicle>
    <vehicle id="359" depart="1.00">
        <route edges="-6055187#2 -6055187#1"/>
    </vehicle>
    <vehicle id="360" depart="1.00">
        <route edges="215306712#0 215306712#1"/>
    </vehicle>
    <vehicle id="361" depart="1.00">
        <route edges="215306712#0 -6055187#1"/>
    </vehicle>
    <vehicle id="362" depart="1.00">
        <route edges="215306712#0 215306712#1"/>
    </vehicle>
    <vehicle id="363" depart="1.00">
        <route edges="215306712#0 6055187#2"/>
    </vehicle>
    <vehicle id="364" depart="1.00">
        <route edges="215306712#0 -6055187#1"/>
    </vehicle>
    <vehicle id="365" depart="1.00">
        <route edges="215306712#0 -6055187#1"/>
    </vehicle>
    <vehicle id="366" depart="1.00">
        <route edges="6055187#0 6055187#2"/>
    </vehicle>
    <vehicle id="367" depart="1.00">
        <route edges="-6055187#2 215306712#1"/>
    </vehicle>
    <vehicle id="368" depart="1.00">
        <route edges="215306712#0 -6055187#1"/>
    </vehicle>
    <vehicle id="369" depart="1.00">
        <route edges="215306712#0 6055187#2"/>
    </vehicle>
    <vehicle id="370" depart="1.00">
        <route edges="-6055187#2 -6055187#1"/>
    </vehicle>
    <vehicle id="371" depart="1.00">
        <route edges="215306712#0 6055187#2"/>
    </vehicle>
    <vehicle id="374" depart="1.00">