<?xml version="1.0" encoding="UTF-8"?>
<!-- generated on 2018-12-17 14:12:26.067676 by $Id$ via randomTrips.py
  options: -n 2way.net.xml -o 2way.rou.xml <doubleminus>validate
-->
<routes xmlns:xsi="http://www.w3.org/2001/XMLSchema-instance" xsi:noNamespaceSchemaLocation="http://sumo.dlr.de/xsd/routes_file.xsd">
    <trip id="1" depart="1.00" from="215306712#0" to="6055187#2"/>
    <trip id="2" depart="1.00" from="-6055187#2" to="215306712#1"/>
    <trip id="3" depart="1.00" from="6055187#0" to="215306712#1"/>
    <trip id="4" depart="1.00" from="215306712#0" to="-6055187#1"/>
    <trip id="5" depart="1.00" from="-6055187#2" to="-6055187#1"/>
    <trip id="6" depart="1.00" from="-6055187#2" to="-6055187#1"/>
    <trip id="7" depart="1.00" from="6055187#0" to="215306712#1"/>
    <trip id="8" depart="1.00" from="-6055187#2" to="-6055187#1"/>
    <trip id="9" depart="1.00" from="-6055187#2" to="215306712#1"/>
    <trip id="10" depart="1.00" from="-6055187#2" to="-6055187#1"/>
    <trip id="11" depart="1.00" from="215306712#0" to="-6055187#1"/>
    <trip id="12" depart="1.00" from="215306712#0" to="6055187#2"/>
    <trip id="13" depart="1.00" from="215306712#0" to="6055187#2"/>
    <trip id="14" depart="1.00" from="-6055187#2" to="215306712#1"/>
    <trip id="15" depart="1.00" from="6055187#0" to="215306712#1"/>
    <trip id="18" depart="1.00" from="-6055187#2" to="-6055187#1"/>
    <trip id="19" depart="1.00" from="-6055187#2" to="-6055187#1"/>
    <trip id="20" depart="1.00" from="6055187#0" to="6055187#2"/>
    <trip id="21" depart="1.00" from="6055187#0" to="215306712#1"/>
    <trip id="22" depart="1.00" from="6055187#0" to="6055187#2"/>
    <trip id="23" depart="1.00" from="-6055187#2" to="-6055187#1"/>
    <trip id="24" depart="1.00" from="6055187#0" to="215306712#1"/>
    <trip id="25" depart="1.00" from="6055187#0" to="6055187#2"/>
    <trip id="26" depart="1.00" from="-6055187#2" to="215306712#1"/>
    <trip id="27" depart="1.00" from="215306712#0" to="6055187#2"/>
    <trip id="29" depart="1.00" from="215306712#0" to="-6055187#1"/>
    <trip id="30" depart="1.00" from="6055187#0" to="215306712#1"/>
    <trip id="32" depart="1.00" from="215306712#0" to="-6055187#1"/>
    <trip id="34" depart="1.00" from="-6055187#2" to="-6055187#1"/>
    <trip id="36" depart="1.00" from="-6055187#2" to="215306712#1"/>
    <trip id="37" depart="1.00" from="6055187#0" to="6055187#2"/>
    <trip id="38" depart="1.00" from="6055187#0" to="215306712#1"/>
    <trip id="39" depart="1.00" from="215306712#0" to="-6055187#1"/>
    <trip id="40" depart="1.00" from="215306712#0" to="215306712#1"/>
    <trip id="41" depart="1.00" from="6055187#0" to="215306712#1"/>
    <trip id="44" depart="1.00" from="215306712#0" to="-6055187#1"/>
    <trip id="45" depart="1.00" from="-6055187#2" to="-6055187#1"/>
    <trip id="46" depart="1.00" from="215306712#0" to="6055187#2"/>
    <trip id="47" depart="1.00" from="-6055187#2" to="215306712#1"/>
    <trip id="48" depart="1.00" from="6055187#0" to="6055187#2"/>
    <trip id="49" depart="1.00" from="-6055187#2" to="215306712#1"/>
    <trip id="50" depart="1.00" from="-6055187#2" to="-6055187#1"/>
    <trip id="51" depart="1.00" from="215306712#0" to="6055187#2"/>
    <trip id="52" depart="1.00" from="215306712#0" to="6055187#2"/>
    <trip id="53" depart="1.00" from="6055187#0" to="6055187#2"/>
    <trip id="55" depart="1.00" from="-6055187#2" to="-6055187#1"/>
    <trip id="56" depart="1.00" from="215306712#0" to="-6055187#1"/>
    <trip id="57" depart="1.00" from="215306712#0" to="215306712#1"/>
    <trip id="58" depart="1.00" from="215306712#0" to="215306712#1"/>
    <trip id="60" depart="1.00" from="215306712#0" to="6055187#2"/>
    <trip id="61" depart="1.00" from="215306712#0" to="6055187#2"/>
    <trip id="62" depart="1.00" from="6055187#0" to="215306712#1"/>
    <trip id="63" depart="1.00" from="215306712#0" to="215306712#1"/>
    <trip id="64" depart="1.00" from="6055187#0" to="6055187#2"/>
    <trip id="69" depart="1.00" from="215306712#0" to="6055187#2"/>
    <trip id="70" depart="1.00" from="215306712#0" to="-6055187#1"/>
    <trip id="71" depart="1.00" from="215306712#0" to="215306712#1"/>
    <trip id="73" depart="1.00" from="215306712#0" to="215306712#1"/>
    <trip id="74" depart="1.00" from="6055187#0" to="215306712#1"/>
    <trip id="75" depart="1.00" from="6055187#0" to="215306712#1"/>
    <trip id="77" depart="1.00" from="6055187#0" to="6055187#2"/>
    <trip id="79" depart="1.00" from="215306712#0" to="6055187#2"/>
    <trip id="80" depart="1.00" from="215306712#0" to="-6055187#1"/>
    <trip id="81" depart="1.00" from="6055187#0" to="215306712#1"/>
    <trip id="82" depart="1.00" from="6055187#0" to="215306712#1"/>
    <trip id="84" depart="1.00" from="215306712#0" to="-6055187#1"/>
    <trip id="85" depart="1.00" from="215306712#0" to="215306712#1"/>
    <trip id="86" depart="1.00" from="-6055187#2" to="215306712#1"/>
    <trip id="87" depart="1.00" from="215306712#0" to="215306712#1"/>
    <trip id="88" depart="1.00" from="-6055187#2" to="-6055187#1"/>
    <trip id="89" depart="1.00" from="6055187#0" to="6055187#2"/>
    <trip id="90" depart="1.00" from="215306712#0" to="215306712#1"/>
    <trip id="91" depart="1.00" from="215306712#0" to="215306712#1"/>
    <trip id="92" depart="1.00" from="6055187#0" to="215306712#1"/>
    <trip id="93" depart="1.00" from="-6055187#2" to="215306712#1"/>
    <trip id="94" depart="1.00" from="215306712#0" to="6055187#2"/>
    <trip id="95" depart="1.00" from="215306712#0" to="-6055187#1"/>
    <trip id="96" depart="1.00" from="-6055187#2" to="215306712#1"/>
    <trip id="97" depart="1.00" from="-6055187#2" to="-6055187#1"/>
    <trip id="99" depart="1.00" from="215306712#0" to="6055187#2"/>
    <trip id="101" depart="1.00" from="6055187#0" to="215306712#1"/>
    <trip id="102" depart="1.00" from="-6055187#2" to="-6055187#1"/>
    <trip id="103" depart="1.00" from="-6055187#2" to="215306712#1"/>
    <trip id="104" depart="1.00" from="215306712#0" to="215306712#1"/>
    <trip id="105" depart="1.00" from="215306712#0" to="6055187#2"/>
    <trip id="106" depart="1.00" from="215306712#0" to="6055187#2"/>
    <trip id="107" depart="1.00" from="6055187#0" to="6055187#2"/>
    <trip id="109" depart="1.00" from="215306712#0" to="6055187#2"/>
    <trip id="110" depart="1.00" from="6055187#0" to="6055187#2"/>
    <trip id="111" depart="1.00" from="-6055187#2" to="-6055187#1"/>
    <trip id="113" depart="1.00" from="-6055187#2" to="-6055187#1"/>
    <trip id="114" depart="1.00" from="-6055187#2" to="215306712#1"/>
    <trip id="115" depart="1.00" from="6055187#0" to="215306712#1"/>
    <trip id="116" depart="1.00" from="6055187#0" to="6055187#2"/>
    <trip id="117" depart="1.00" from="215306712#0" to="-6055187#1"/>
    <trip id="119" depart="1.00" from="6055187#0" to="215306712#1"/>
    <trip id="120" depart="1.00" from="215306712#0" to="-6055187#1"/>
    <trip id="122" depart="1.00" from="6055187#0" to="215306712#1"/>
    <trip id="123" depart="1.00" from="-6055187#2" to="-6055187#1"/>
    <trip id="125" depart="1.00" from="215306712#0" to="6055187#2"/>
    <trip id="126" depart="1.00" from="6055187#0" to="215306712#1"/>
    <trip id="128" depart="1.00" from="215306712#0" to="6055187#2"/>
    <trip id="130" depart="1.00" from="215306712#0" to="215306712#1"/>
    <trip id="131" depart="1.00" from="215306712#0" to="6055187#2"/>
    <trip id="133" depart="1.00" from="215306712#0" to="6055187#2"/>
    <trip id="134" depart="1.00" from="215306712#0" to="-6055187#1"/>
    <trip id="135" depart="1.00" from="-6055187#2" to="-6055187#1"/>
    <trip id="136" depart="1.00" from="6055187#0" to="215306712#1"/>
    <trip id="138" depart="1.00" from="6055187#0" to="215306712#1"/>
    <trip id="139" depart="1.00" from="215306712#0" to="6055187#2"/>
    <trip id="140" depart="1.00" from="-6055187#2" to="-6055187#1"/>
    <trip id="141" depart="1.00" from="6055187#0" to="215306712#1"/>
    <trip id="142" depart="1.00" from="215306712#0" to="215306712#1"/>
    <trip id="143" depart="1.00" from="215306712#0" to="-6055187#1"/>
    <trip id="144" depart="1.00" from="-6055187#2" to="-6055187#1"/>
    <trip id="145" depart="1.00" from="-6055187#2" to="-6055187#1"/>
    <trip id="146" depart="1.00" from="-6055187#2" to="215306712#1"/>
    <trip id="148" depart="1.00" from="6055187#0" to="215306712#1"/>
    <trip id="149" depart="1.00" from="215306712#0" to="-6055187#1"/>
    <trip id="150" depart="1.00" from="215306712#0" to="215306712#1"/>
    <trip id="151" depart="1.00" from="215306712#0" to="-6055187#1"/>
    <trip id="152" depart="1.00" from="215306712#0" to="6055187#2"/>
    <trip id="154" depart="1.00" from="6055187#0" to="215306712#1"/>
    <trip id="155" depart="1.00" from="215306712#0" to="6055187#2"/>
    <trip id="157" depart="1.00" from="215306712#0" to="-6055187#1"/>
    <trip id="158" depart="1.00" from="215306712#0" to="-6055187#1"/>
    <trip id="160" depart="1.00" from="215306712#0" to="215306712#1"/>
    <trip id="161" depart="1.00" from="-6055187#2" to="215306712#1"/>
    <trip id="162" depart="1.00" from="6055187#0" to="6055187#2"/>
    <trip id="164" depart="1.00" from="6055187#0" to="6055187#2"/>
    <trip id="165" depart="1.00" from="215306712#0" to="215306712#1"/>
    <trip id="166" depart="1.00" from="215306712#0" to="215306712#1"/>
    <trip id="167" depart="1.00" from="-6055187#2" to="-6055187#1"/>
    <trip id="169" depart="1.00" from="6055187#0" to="6055187#2"/>
    <trip id="171" depart="1.00" from="6055187#0" to="215306712#1"/>
    <trip id="172" depart="1.00" from="6055187#0" to="215306712#1"/>
    <trip id="173" depart="1.00" from="-6055187#2" to="215306712#1"/>
    <trip id="174" depart="1.00" from="-6055187#2" to="215306712#1"/>
    <trip id="175" depart="1.00" from="215306712#0" to="-6055187#1"/>
    <trip id="176" depart="1.00" from="6055187#0" to="215306712#1"/>
    <trip id="178" depart="1.00" from="6055187#0" to="215306712#1"/>
    <trip id="179" depart="1.00" from="215306712#0" to="-6055187#1"/>
    <trip id="180" depart="1.00" from="-6055187#2" to="215306712#1"/>
    <trip id="183" depart="1.00" from="6055187#0" to="6055187#2"/>
    <trip id="184" depart="1.00" from="6055187#0" to="215306712#1"/>
    <trip id="186" depart="1.00" from="6055187#0" to="6055187#2"/>
    <trip id="187" depart="1.00" from="215306712#0" to="6055187#2"/>
    <trip id="188" depart="1.00" from="215306712#0" to="6055187#2"/>
    <trip id="189" depart="1.00" from="-6055187#2" to="-6055187#1"/>
    <trip id="191" depart="1.00" from="-6055187#2" to="215306712#1"/>
    <trip id="193" depart="1.00" from="-6055187#2" to="-6055187#1"/>
    <trip id="194" depart="1.00" from="-6055187#2" to="215306712#1"/>
    <trip id="195" depart="1.00" from="-6055187#2" to="215306712#1"/>
    <trip id="197" depart="1.00" from="215306712#0" to="-6055187#1"/>
    <trip id="198" depart="1.00" from="-6055187#2" to="-6055187#1"/>
    <trip id="199" depart="1.00" from="6055187#0" to="6055187#2"/>
    <trip id="200" depart="1.00" from="6055187#0" to="6055187#2"/>
    <trip id="201" depart="1.00" from="6055187#0" to="6055187#2"/>
    <trip id="202" depart="1.00" from="-6055187#2" to="-6055187#1"/>
    <trip id="203" depart="1.00" from="6055187#0" to="215306712#1"/>
    <trip id="205" depart="1.00" from="215306712#0" to="-6055187#1"/>
    <trip id="206" depart="1.00" from="6055187#0" to="6055187#2"/>
    <trip id="207" depart="1.00" from="215306712#0" to="-6055187#1"/>
    <trip id="208" depart="1.00" from="215306712#0" to="-6055187#1"/>
    <trip id="209" depart="1.00" from="6055187#0" to="215306712#1"/>
    <trip id="211" depart="1.00" from="215306712#0" to="-6055187#1"/>
    <trip id="212" depart="1.00" from="-6055187#2" to="-6055187#1"/>
    <trip id="213" depart="1.00" from="215306712#0" to="6055187#2"/>
    <trip id="214" depart="1.00" from="6055187#0" to="215306712#1"/>
    <trip id="215" depart="1.00" from="215306712#0" to="215306712#1"/>
    <trip id="216" depart="1.00" from="-6055187#2" to="-6055187#1"/>
    <trip id="217" depart="1.00" from="6055187#0" to="215306712#1"/>
    <trip id="218" depart="1.00" from="215306712#0" to="215306712#1"/>
    <trip id="219" depart="1.00" from="-6055187#2" to="215306712#1"/>
    <trip id="220" depart="1.00" from="215306712#0" to="6055187#2"/>
    <trip id="222" depart="1.00" from="6055187#0" to="215306712#1"/>
    <trip id="223" depart="1.00" from="215306712#0" to="6055187#2"/>
    <trip id="225" depart="1.00" from="215306712#0" to="215306712#1"/>
    <trip id="226" depart="1.00" from="6055187#0" to="215306712#1"/>
    <trip id="227" depart="1.00" from="6055187#0" to="6055187#2"/>
    <trip id="228" depart="1.00" from="215306712#0" to="6055187#2"/>
    <trip id="229" depart="1.00" from="6055187#0" to="6055187#2"/>
    <trip id="230" depart="1.00" from="215306712#0" to="215306712#1"/>
    <trip id="232" depart="1.00" from="6055187#0" to="215306712#1"/>
    <trip id="233" depart="1.00" from="6055187#0" to="215306712#1"/>
    <trip id="235" depart="1.00" from="215306712#0" to="6055187#2"/>
    <trip id="237" depart="1.00" from="-6055187#2" to="215306712#1"/>
    <trip id="238" depart="1.00" from="215306712#0" to="6055187#2"/>
    <trip id="239" depart="1.00" from="-6055187#2" to="215306712#1"/>
    <trip id="240" depart="1.00" from="215306712#0" to="6055187#2"/>
    <trip id="242" depart="1.00" from="215306712#0" to="6055187#2"/>
    <trip id="243" depart="1.00" from="6055187#0" to="215306712#1"/>
    <trip id="244" depart="1.00" from="215306712#0" to="-6055187#1"/>
    <trip id="245" depart="1.00" from="-6055187#2" to="215306712#1"/>
    <trip id="246" depart="1.00" from="-6055187#2" to="-6055187#1"/>
    <trip id="247" depart="1.00" from="-6055187#2" to="-6055187#1"/>
    <trip id="248" depart="1.00" from="6055187#0" to="6055187#2"/>
    <trip id="250" depart="1.00" from="6055187#0" to="6055187#2"/>
    <trip id="254" depart="1.00" from="215306712#0" to="215306712#1"/>
    <trip id="255" depart="1.00" from="-6055187#2" to="215306712#1"/>
    <trip id="257" depart="1.00" from="215306712#0" to="6055187#2"/>
    <trip id="258" depart="1.00" from="-6055187#2" to="-6055187#1"/>
    <trip id="259" depart="1.00" from="6055187#0" to="215306712#1"/>
    <trip id="260" depart="1.00" from="215306712#0" to="215306712#1"/>
    <trip id="261" depart="1.00" from="6055187#0" to="6055187#2"/>
    <trip id="263" depart="1.00" from="-6055187#2" to="215306712#1"/>
    <trip id="264" depart="1.00" from="215306712#0" to="-6055187#1"/>
    <trip id="265" depart="1.00" from="215306712#0" to="215306712#1"/>
    <trip id="266" depart="1.00" from="215306712#0" to="215306712#1"/>
    <trip id="268" depart="1.00" from="215306712#0" to="215306712#1"/>
    <trip id="269" depart="1.00" from="-6055187#2" to="-6055187#1"/>
    <trip id="271" depart="1.00" from="215306712#0" to="215306712#1"/>
    <trip id="272" depart="1.00" from="215306712#0" to="215306712#1"/>
    <trip id="274" depart="1.00" from="-6055187#2" to="215306712#1"/>
    <trip id="275" depart="1.00" from="-6055187#2" to="215306712#1"/>
    <trip id="276" depart="1.00" from="6055187#0" to="6055187#2"/>
    <trip id="277" depart="1.00" from="215306712#0" to="6055187#2"/>
    <trip id="278" depart="1.00" from="215306712#0" to="-6055187#1"/>
    <trip id="279" depart="1.00" from="215306712#0" to="6055187#2"/>
    <trip id="280" depart="1.00" from="-6055187#2" to="-6055187#1"/>
    <trip id="282" depart="1.00" from="-6055187#2" to="215306712#1"/>
    <trip id="283" depart="1.00" from="-6055187#2" to="-6055187#1"/>
    <trip id="285" depart="1.00" from="6055187#0" to="6055187#2"/>
    <trip id="287" depart="1.00" from="-6055187#2" to="215306712#1"/>
    <trip id="288" depart="1.00" from="215306712#0" to="215306712#1"/>
    <trip id="289" depart="1.00" from="215306712#0" to="215306712#1"/>
    <trip id="290" depart="1.00" from="6055187#0" to="215306712#1"/>
    <trip id="292" depart="1.00" from="6055187#0" to="6055187#2"/>
    <trip id="295" depart="1.00" from="215306712#0" to="6055187#2"/>
    <trip id="296" depart="1.00" from="-6055187#2" to="-6055187#1"/>
    <trip id="298" depart="1.00" from="-6055187#2" to="-6055187#1"/>
    <trip id="299" depart="1.00" from="6055187#0" to="6055187#2"/>
    <trip id="300" depart="1.00" from="-6055187#2" to="-6055187#1"/>
    <trip id="301" depart="1.00" from="-6055187#2" to="-6055187#1"/>
    <trip id="302" depart="1.00" from="215306712#0" to="-6055187#1"/>
    <trip id="303" depart="1.00" from="6055187#0" to="215306712#1"/>
    <trip id="304" depart="1.00" from="215306712#0" to="215306712#1"/>
    <trip id="305" depart="1.00" from="215306712#0" to="215306712#1"/>
    <trip id="306" depart="1.00" from="6055187#0" to="6055187#2"/>
    <trip id="308" depart="1.00" from="-6055187#2" to="-6055187#1"/>
    <trip id="309" depart="1.00" from="215306712#0" to="215306712#1"/>
    <trip id="310" depart="1.00" from="-6055187#2" to="215306712#1"/>
    <trip id="312" depart="1.00" from="215306712#0" to="215306712#1"/>
    <trip id="313" depart="1.00" from="215306712#0" to="-6055187#1"/>
    <trip id="315" depart="1.00" from="-6055187#2" to="215306712#1"/>
    <trip id="316" depart="1.00" from="-6055187#2" to="215306712#1"/>
    <trip id="317" depart="1.00" from="6055187#0" to="6055187#2"/>
    <trip id="319" depart="1.00" from="6055187#0" to="6055187#2"/>
    <trip id="320" depart="1.00" from="6055187#0" to="215306712#1"/>
    <trip id="321" depart="1.00" from="215306712#0" to="-6055187#1"/>
    <trip id="322" depart="1.00" from="215306712#0" to="215306712#1"/>
    <trip id="323" depart="1.00" from="-6055187#2" to="-6055187#1"/>
    <trip id="324" depart="1.00" from="-6055187#2" to="-6055187#1"/>
    <trip id="325" depart="1.00" from="215306712#0" to="6055187#2"/>
    <trip id="326" depart="1.00" from="215306712#0" to="-6055187#1"/>
    <trip id="327" depart="1.00" from="215306712#0" to="215306712#1"/>
    <trip id="328" depart="1.00" from="215306712#0" to="6055187#2"/>
    <trip id="331" depart="1.00" from="-6055187#2" to="-6055187#1"/>
    <trip id="332" depart="1.00" from="-6055187#2" to="215306712#1"/>
    <trip id="333" depart="1.00" from="-6055187#2" to="215306712#1"/>
    <trip id="334" depart="1.00" from="215306712#0" to="-6055187#1"/>
    <trip id="335" depart="1.00" from="6055187#0" to="215306712#1"/>
    <trip id="336" depart="1.00" from="215306712#0" to="215306712#1"/>
    <trip id="337" depart="1.00" from="215306712#0" to="6055187#2"/>
    <trip id="338" depart="1.00" from="6055187#0" to="215306712#1"/>
    <trip id="339" depart="1.00" from="215306712#0" to="6055187#2"/>
    <trip id="341" depart="1.00" from="215306712#0" to="215306712#1"/>
    <trip id="342" depart="1.00" from="6055187#0" to="6055187#2"/>
    <trip id="343" depart="1.00" from="6055187#0" to="6055187#2"/>
    <trip id="345" depart="1.00" from="-6055187#2" to="215306712#1"/>
    <trip id="346" depart="1.00" from="-6055187#2" to="-6055187#1"/>
    <trip id="347" depart="1.00" from="215306712#0" to="215306712#1"/>
    <trip id="348" depart="1.00" from="215306712#0" to="6055187#2"/>
    <trip id="349" depart="1.00" from="215306712#0" to="6055187#2"/>
    <trip id="351" depart="1.00" from="6055187#0" to="215306712#1"/>
    <trip id="352" depart="1.00" from="215306712#0" to="215306712#1"/>
    <trip id="353" depart="1.00" from="215306712#0" to="6055187#2"/>
    <trip id="354" depart="1.00" from="6055187#0" to="6055187#2"/>
    <trip id="355" depart="1.00" from="-6055187#2" to="-6055187#1"/>
    <trip id="356" depart="1.00" from="6055187#0" to="215306712#1"/>
    <trip id="357" depart="1.00" from="215306712#0" to="6055187#2"/>
    <trip id="358" depart="1.00" from="6055187#0" to="6055187#2"/>
    <trip id="359" depart="1.00" from="215306712#0" to="6055187#2"/>
    <trip id="360" depart="1.00" from="6055187#0" to="215306712#1"/>
    <trip id="363" depart="1.00" from="-6055187#2" to="215306712#1"/>
    <trip id="364" depart="1.00" from="6055187#0" to="215306712#1"/>
    <trip id="365" depart="1.00" from="6055187#0" to="6055187#2"/>
    <trip id="366" depart="1.00" from="-6055187#2" to="215306712#1"/>
    <trip id="367" depart="1.00" from="215306712#0" to="215306712#1"/>
    <trip id="368" depart="1.00" from="6055187#0" to="215306712#1"/>
    <trip id="369" depart="1.00" from="215306712#0" to="-6055187#1"/>
    <trip id="370" depart="1.00" from="6055187#0" to="215306712#1"/>
    <trip id="371" depart="1.00" from="6055187#0" to="215306712#1"/>
    <trip id="372" depart="1.00" from="215306712#0" to="215306712#1"/>
    <trip id="374" depart="1.00" from="6055187#0" to="6055187#2"/>
    <trip id="376" depart="1.00" from="6055187#0" to="215306712#1"/>
    <trip id="377" depart="1.00" from="215306712#0" to="-6055187#1"/>
    <trip id="378" depart="1.00" from="215306712#0" to="-6055187#1"/>
    <trip id="379" depart="1.00" from="215306712#0" to="-6055187#1"/>
    <trip id="380" depart="1.00" from="-6055187#2" to="215306712#1"/>
    <trip id="381" depart="1.00" from="6055187#0" to="215306712#1"/>
    <trip id="382" depart="1.00" from="6055187#0" to="6055187#2"/>
    <trip id="383" depart="1.00" from="6055187#0" to="215306712#1"/>
    <trip id="384" depart="1.00" from="215306712#0" to="-6055187#1"/>
    <trip id="385" depart="1.00" from="-6055187#2" to="215306712#1"/>
    <trip id="388" depart="1.00" from="-6055187#2" to="215306712#1"/>
    <trip id="389" depart="1.00" from="6055187#0" to="6055187#2"/>
    <trip id="390" depart="1.00" from="6055187#0" to="6055187#2"/>
    <trip id="391" depart="1.00" from="-6055187#2" to="-6055187#1"/>
    <trip id="392" depart="1.00" from="215306712#0" to="215306712#1"/>
    <trip id="393" depart="1.00" from="-6055187#2" to="215306712#1"/>
    <trip id="394" depart="1.00" from="-6055187#2" to="215306712#1"/>
    <trip id="395" depart="1.00" from="215306712#0" to="6055187#2"/>
    <trip id="396" depart="1.00" from="6055187#0" to="6055187#2"/>
    <trip id="397" depart="1.00" from="-6055187#2" to="215306712#1"/>
    <trip id="398" depart="1.00" from="215306712#0" to="-6055187#1"/>
    <trip id="399" depart="1.00" from="215306712#0" to="-6055187#1"/>
    <trip id="400" depart="1.00" from="215306712#0" to="-6055187#1"/>
    <trip id="401" depart="1.00" from="215306712#0" to="-6055187#1"/>
    <trip id="402" depart="1.00" from="215306712#0" to="6055187#2"/>
    <trip id="403" depart="1.00" from="-6055187#2" to="215306712#1"/>
    <trip id="404" depart="1.00" from="6055187#0" to="6055187#2"/>
    <trip id="405" depart="1.00" from="215306712#0" to="-6055187#1"/>
    <trip id="408" depart="1.00" from="6055187#0" to="6055187#2"/>
    <trip id="409" depart="1.00" from="-6055187#2" to="215306712#1"/>
    <trip id="410" depart="1.00" from="215306712#0" to="215306712#1"/>
    <trip id="411" depart="1.00" from="215306712#0" to="215306712#1"/>
    <trip id="412" depart="1.00" from="-6055187#2" to="-6055187#1"/>
    <trip id="413" depart="1.00" from="215306712#0" to="6055187#2"/>
    <trip id="414" depart="1.00" from="215306712#0" to="-6055187#1"/>
    <trip id="415" depart="1.00" from="215306712#0" to="6055187#2"/>
    <trip id="416" depart="1.00" from="-6055187#2" to="215306712#1"/>
    <trip id="418" depart="1.00" from="6055187#0" to="6055187#2"/>
    <trip id="419" depart="1.00" from="6055187#0" to="6055187#2"/>
    <trip id="420" depart="1.00" from="215306712#0" to="-6055187#1"/>
    <trip id="421" depart="1.00" from="215306712#0" to="-6055187#1"/>
    <trip id="423" depart="1.00" from="215306712#0" to="215306712#1"/>
    <trip id="424" depart="1.00" from="6055187#0" to="215306712#1"/>
    <trip id="425" depart="1.00" from="215306712#0" to="215306712#1"/>
    <trip id="426" depart="1.00" from="215306712#0" to="-6055187#1"/>
    <trip id="428" depart="1.00" from="215306712#0" to="-6055187#1"/>
    <trip id="429" depart="1.00" from="6055187#0" to="6055187#2"/>
    <trip id="430" depart="1.00" from="6055187#0" to="215306712#1"/>
    <trip id="431" depart="1.00" from="6055187#0" to="6055187#2"/>
    <trip id="433" depart="1.00" from="-6055187#2" to="-6055187#1"/>
    <trip id="435" depart="1.00" from="-6055187#2" to="215306712#1"/>
    <trip id="436" depart="1.00" from="-6055187#2" to="-6055187#1"/>
    <trip id="437" depart="1.00" from="215306712#0" to="6055187#2"/>
    <trip id="438" depart="1.00" from="-6055187#2" to="215306712#1"/>
    <trip id="439" depart="1.00" from="215306712#0" to="6055187#2"/>
    <trip id="440" depart="1.00" from="-6055187#2" to="-6055187#1"/>
    <trip id="441" depart="1.00" from="6055187#0" to="6055187#2"/>
    <trip id="442" depart="1.00" from="215306712#0" to="215306712#1"/>
    <trip id="443" depart="1.00" from="6055187#0" to="215306712#1"/>
    <trip id="446" depart="1.00" from="215306712#0" to="6055187#2"/>
    <trip id="447" depart="1.00" from="-6055187#2" to="215306712#1"/>
    <trip id="448" depart="1.00" from="6055187#0" to="215306712#1"/>
    <trip id="452" depart="1.00" from="6055187#0" to="215306712#1"/>
    <trip id="453" depart="1.00" from="215306712#0" to="-6055187#1"/>
    <trip id="454" depart="1.00" from="6055187#0" to="6055187#2"/>
    <trip id="456" depart="1.00" from="215306712#0" to="-6055187#1"/>
    <trip id="458" depart="1.00" from="215306712#0" to="-6055187#1"/>
    <trip id="459" depart="1.00" from="215306712#0" to="-6055187#1"/>
    <trip id="461" depart="1.00" from="6055187#0" to="6055187#2"/>
    <trip id="462" depart="1.00" from="-6055187#2" to="-6055187#1"/>
    <trip id="464" depart="1.00" from="6055187#0" to="6055187#2"/>
    <trip id="466" depart="1.00" from="6055187#0" to="215306712#1"/>
    <trip id="467" depart="1.00" from="-6055187#2" to="215306712#1"/>
    <trip id="468" depart="1.00" from="6055187#0" to="215306712#1"/>
    <trip id="469" depart="1.00" from="6055187#0" to="215306712#1"/>
    <trip id="470" depart="1.00" from="215306712#0" to="6055187#2"/>
    <trip id="471" depart="1.00" from="215306712#0" to="215306712#1"/>
    <trip id="472" depart="1.00" from="215306712#0" to="215306712#1"/>
    <trip id="473" depart="1.00" from="215306712#0" to="6055187#2"/>
    <trip id="474" depart="1.00" from="6055187#0" to="215306712#1"/>
    <trip id="476" depart="1.00" from="-6055187#2" to="215306712#1"/>
    <trip id="477" depart="1.00" from="6055187#0" to="215306712#1"/>
    <trip id="478" depart="1.00" from="215306712#0" to="6055187#2"/>
    <trip id="479" depart="1.00" from="215306712#0" to="-6055187#1"/>
    <trip id="480" depart="1.00" from="215306712#0" to="215306712#1"/>
    <trip id="481" depart="1.00" from="6055187#0" to="215306712#1"/>
    <trip id="482" depart="1.00" from="-6055187#2" to="215306712#1"/>
    <trip id="483" depart="1.00" from="-6055187#2" to="215306712#1"/>
    <trip id="484" depart="1.00" from="215306712#0" to="6055187#2"/>
    <trip id="485" depart="1.00" from="-6055187#2" to="-6055187#1"/>
    <trip id="486" depart="1.00" from="215306712#0" to="215306712#1"/>
    <trip id="488" depart="1.00" from="215306712#0" to="6055187#2"/>
    <trip id="489" depart="1.00" from="215306712#0" to="215306712#1"/>
    <trip id="491" depart="1.00" from="-6055187#2" to="-6055187#1"/>
    <trip id="492" depart="1.00" from="6055187#0" to="6055187#2"/>
    <trip id="493" depart="1.00" from="215306712#0" to="215306712#1"/>
    <trip id="494" depart="1.00" from="-6055187#2" to="-6055187#1"/>
    <trip id="495" depart="1.00" from="215306712#0" to="215306712#1"/>
    <trip id="496" depart="1.00" from="-6055187#2" to="-6055187#1"/>
    <trip id="497" depart="1.00" from="-6055187#2" to="215306712#1"/>
    <trip id="498" depart="1.00" from="6055187#0" to="6055187#2"/>
    <trip id="500" depart="1.00" from="-6055187#2" to="-6055187#1"/>
    <trip id="501" depart="1.00" from="215306712#0" to="6055187#2"/>
    <trip id="503" depart="1.00" from="6055187#0" to="6055187#2"/>
    <trip id="506" depart="1.00" from="215306712#0" to="-6055187#1"/>
    <trip id="507" depart="1.00" from="215306712#0" to="-6055187#1"/>
    <trip id="508" depart="1.00" from="215306712#0" to="215306712#1"/>
    <trip id="509" depart="1.00" from="215306712#0" to="215306712#1"/>
    <trip id="511" depart="1.00" from="215306712#0" to="215306712#1"/>
    <trip id="512" depart="1.00" from="6055187#0" to="215306712#1"/>
    <trip id="513" depart="1.00" from="215306712#0" to="215306712#1"/>
    <trip id="514" depart="1.00" from="-6055187#2" to="215306712#1"/>
    <trip id="515" depart="1.00" from="215306712#0" to="-6055187#1"/>
    <trip id="516" depart="1.00" from="6055187#0" to="215306712#1"/>
    <trip id="517" depart="1.00" from="215306712#0" to="215306712#1"/>
    <trip id="518" depart="1.00" from="215306712#0" to="215306712#1"/>
    <trip id="520" depart="1.00" from="215306712#0" to="6055187#2"/>
    <trip id="522" depart="1.00" from="215306712#0" to="6055187#2"/>
    <trip id="524" depart="1.00" from="215306712#0" to="215306712#1"/>
    <trip id="526" depart="1.00" from="-6055187#2" to="215306712#1"/>
    <trip id="527" depart="1.00" from="215306712#0" to="215306712#1"/>
    <trip id="528" depart="1.00" from="215306712#0" to="-6055187#1"/>
    <trip id="531" depart="1.00" from="6055187#0" to="215306712#1"/>
    <trip id="532" depart="1.00" from="6055187#0" to="6055187#2"/>
    <trip id="533" depart="1.00" from="215306712#0" to="215306712#1"/>
    <trip id="534" depart="1.00" from="215306712#0" to="6055187#2"/>
    <trip id="535" depart="1.00" from="-6055187#2" to="-6055187#1"/>
    <trip id="537" depart="1.00" from="6055187#0" to="6055187#2"/>
    <trip id="538" depart="1.00" from="215306712#0" to="6055187#2"/>
    <trip id="539" depart="1.00" from="-6055187#2" to="215306712#1"/>
    <trip id="540" depart="1.00" from="215306712#0" to="6055187#2"/>
    <trip id="541" depart="1.00" from="-6055187#2" to="215306712#1"/>
    <trip id="542" depart="1.00" from="215306712#0" to="6055187#2"/>
    <trip id="543" depart="1.00" from="6055187#0" to="215306712#1"/>