<additional>
	<tlLogic id="gneJ1" offset="0" programID="custom" type="static">
		<phase duration="1" state="rrrggg" />
		<phase duration="1" state="rrryyy" />
		<phase duration="1" state="gggrrr" />
		<phase duration="1" state="yyyrrr" />
		<phase duration="1" state="GGGrrr" />
		<phase duration="1" state="yyyyyy" />
	</tlLogic>
</additional>