<?xml version="1.0" encoding="UTF-8"?>

<!-- generated on 11/26/18 14:00:44 by Eclipse SUMO netedit Version 1.0.1
<configuration xmlns:xsi="http://www.w3.org/2001/XMLSchema-instance" xsi:noNamespaceSchemaLocation="http://sumo.dlr.de/xsd/netconvertConfiguration.xsd">

    <input>
        <sumo-net-file value="C:\Users\isaia\OneDrive\Documents\GitHub\SeniorResearch\SUMO_files\Systems\trafficlight_test\trafficlight_test.net.xml"/>
    </input>

    <output>
        <output-file value="C:\Users\isaia\OneDrive\Documents\GitHub\SeniorResearch\SUMO_files\Systems\trafficlight_test\trafficlight_test.net.xml"/>
    </output>

    <processing>
        <offset.disable-normalization value="true"/>
        <lefthand value="false"/>
    </processing>

    <junctions>
        <no-turnarounds value="true"/>
        <junctions.corner-detail value="5"/>
        <junctions.limit-turn-speed value="5.5"/>
        <rectangular-lane-cut value="false"/>
    </junctions>

    <pedestrian>
        <walkingareas value="false"/>
    </pedestrian>

</configuration>
-->

<net version="1.0" junctionCornerDetail="5" limitTurnSpeed="5.50" xmlns:xsi="http://www.w3.org/2001/XMLSchema-instance" xsi:noNamespaceSchemaLocation="http://sumo.dlr.de/xsd/net_file.xsd">

    <location netOffset="0.00,0.00" convBoundary="0.00,0.00,150.00,0.00" origBoundary="-10000000000.00,-10000000000.00,10000000000.00,10000000000.00" projParameter="!"/>

    <edge id=":east_junction_0" function="internal">
        <lane id=":east_junction_0_0" index="0" speed="13.89" length="0.10" shape="100.00,1.60 100.00,1.60"/>
    </edge>
    <edge id=":east_junction_1" function="internal">
        <lane id=":east_junction_1_0" index="0" speed="13.89" length="0.10" shape="100.00,-1.60 100.00,-1.60"/>
    </edge>
    <edge id=":west_junction_0" function="internal">
        <lane id=":west_junction_0_0" index="0" speed="13.89" length="0.10" shape="50.00,1.60 50.00,1.60"/>
    </edge>
    <edge id=":west_junction_1" function="internal">
        <lane id=":west_junction_1_0" index="0" speed="13.89" length="0.10" shape="50.00,-1.60 50.00,-1.60"/>
    </edge>

    <edge id="EW_1" from="east_endpoint" to="east_junction" priority="-1">
        <lane id="EW_1_0" index="0" speed="13.89" length="50.00" shape="150.00,1.60 100.00,1.60"/>
    </edge>
    <edge id="EW_2" from="east_junction" to="west_junction" priority="-1">
        <lane id="EW_2_0" index="0" speed="13.89" length="50.00" shape="100.00,1.60 50.00,1.60"/>
    </edge>
    <edge id="EW_3" from="west_junction" to="west_endpoint" priority="-1">
        <lane id="EW_3_0" index="0" speed="13.89" length="50.00" shape="50.00,1.60 0.00,1.60"/>
    </edge>
    <edge id="WE_1" from="west_endpoint" to="west_junction" priority="-1">
        <lane id="WE_1_0" index="0" speed="13.89" length="50.00" shape="0.00,-1.60 50.00,-1.60"/>
    </edge>
    <edge id="WE_2" from="west_junction" to="east_junction" priority="-1">
        <lane id="WE_2_0" index="0" speed="13.89" length="50.00" shape="50.00,-1.60 100.00,-1.60"/>
    </edge>
    <edge id="WE_3" from="east_junction" to="east_endpoint" priority="-1">
        <lane id="WE_3_0" index="0" speed="13.89" length="50.00" shape="100.00,-1.60 150.00,-1.60"/>
    </edge>

    <tlLogic id="east_light" type="static" programID="0" offset="0">
        <phase duration="82" state="GG"/>
        <phase duration="3"  state="yy"/>
        <phase duration="5"  state="rr"/>
    </tlLogic>
    <tlLogic id="west_light" type="static" programID="1" offset="0">
        <phase duration="82" state="GG"/>
        <phase duration="3"  state="yy"/>
        <phase duration="5"  state="rr"/>
    </tlLogic>

    <junction id="east_endpoint" type="dead_end" x="150.00" y="0.00" incLanes="WE_3_0" intLanes="" shape="150.00,0.00 150.00,-3.20 150.00,0.00"/>
    <junction id="east_junction" type="traffic_light" x="100.00" y="0.00" incLanes="EW_1_0 WE_2_0" intLanes=":east_junction_0_0 :east_junction_1_0" shape="100.00,3.20 100.00,-3.20 100.00,3.20">
        <request index="0" response="00" foes="00" cont="0"/>
        <request index="1" response="00" foes="00" cont="0"/>
    </junction>
    <junction id="west_endpoint" type="dead_end" x="0.00" y="0.00" incLanes="EW_3_0" intLanes="" shape="0.00,0.00 0.00,3.20 0.00,0.00"/>
    <junction id="west_junction" type="traffic_light" x="50.00" y="0.00" incLanes="EW_2_0 WE_1_0" intLanes=":west_junction_0_0 :west_junction_1_0" shape="50.00,3.20 50.00,-3.20 50.00,3.20">
        <request index="0" response="00" foes="00" cont="0"/>
        <request index="1" response="00" foes="00" cont="0"/>
    </junction>

    <connection from="EW_1" to="EW_2" fromLane="0" toLane="0" via=":east_junction_0_0" tl="east_light" linkIndex="0" dir="s" state="O"/>
    <connection from="EW_2" to="EW_3" fromLane="0" toLane="0" via=":west_junction_0_0" tl="west_light" linkIndex="0" dir="s" state="O"/>
    <connection from="WE_1" to="WE_2" fromLane="0" toLane="0" via=":west_junction_1_0" tl="west_light" linkIndex="1" dir="s" state="O"/>
    <connection from="WE_2" to="WE_3" fromLane="0" toLane="0" via=":east_junction_1_0" tl="east_light" linkIndex="1" dir="s" state="O"/>

    <connection from=":east_junction_0" to="EW_2" fromLane="0" toLane="0" dir="s" state="M"/>
    <connection from=":east_junction_1" to="WE_3" fromLane="0" toLane="0" dir="s" state="M"/>
    <connection from=":west_junction_0" to="EW_3" fromLane="0" toLane="0" dir="s" state="M"/>
    <connection from=":west_junction_1" to="WE_2" fromLane="0" toLane="0" dir="s" state="M"/>

</net>
