<?xml version="1.0" encoding="UTF-8"?>
<!-- generated on 2018-11-09 13:29:10.240481 by $Id$ via randomTrips.py
  options: 
-->
<routes xmlns:xsi="http://www.w3.org/2001/XMLSchema-instance" xsi:noNamespaceSchemaLocation="http://sumo.dlr.de/xsd/routes_file.xsd">
    <vType id="veh_passenger" vClass="passenger">
    </vType>
    <trip id="veh0" depart="0.00" departLane="best" from="-8820650" to="-8820800#0" type="veh_passenger"/>
    <trip id="veh1" depart="0.19" departLane="best" from="8808611#3" to="599973595#4" type="veh_passenger"/>
    <trip id="veh2" depart="0.38" departLane="best" from="8836422#0" to="-468507916#0" type="veh_passenger"/>
    <trip id="veh3" depart="0.58" departLane="best" from="-8841177#10" to="-171725055#2" type="veh_passenger"/>
    <trip id="veh4" depart="0.77" departLane="best" from="-8813478#1" to="201846653" type="veh_passenger"/>
    <trip id="veh5" depart="0.96" departLane="best" from="-171573161#1" to="-8818476" type="veh_passenger"/>
    <trip id="veh6" depart="1.15" departLane="best" from="468511702" to="237319931" type="veh_passenger"/>
    <trip id="veh7" depart="1.34" departLane="best" from="-8813478#4" to="468510429#4" type="veh_passenger"/>
    <trip id="veh8" depart="1.54" departLane="best" from="8820767" to="-171571103#7" type="veh_passenger"/>
    <trip id="veh9" depart="1.73" departLane="best" from="8820260#4" to="8806423" type="veh_passenger"/>
    <trip id="veh10" depart="1.92" departLane="best" from="-8831924" to="-8810237#0" type="veh_passenger"/>
    <trip id="veh11" depart="2.11" departLane="best" from="8841302#0" to="-8840513#0" type="veh_passenger"/>
    <trip id="veh12" depart="2.30" departLane="best" from="-232194256#11" to="-468516392" type="veh_passenger"/>
    <trip id="veh13" depart="2.50" departLane="best" from="8827910#0" to="468511698" type="veh_passenger"/>
    <trip id="veh14" depart="2.69" departLane="best" from="8820398" to="8813365#2" type="veh_passenger"/>
    <trip id="veh15" depart="2.88" departLane="best" from="171725043#0" to="8843307" type="veh_passenger"/>
    <trip id="veh16" depart="3.07" departLane="best" from="-8837378#3" to="237605168#2" type="veh_passenger"/>
    <trip id="veh17" depart="3.26" departLane="best" from="8823875#9" to="469114551" type="veh_passenger"/>
    <trip id="veh18" depart="3.46" departLane="best" from="8829749#1" to="468507916#0" type="veh_passenger"/>
    <trip id="veh19" depart="3.65" departLane="best" from="590842388#0" to="-201846643" type="veh_passenger"/>
    <trip id="veh20" depart="3.84" departLane="best" from="-8813959" to="-8835573#4" type="veh_passenger"/>
    <trip id="veh21" depart="4.03" departLane="best" from="-201846670" to="-8823875#14" type="veh_passenger"/>
    <trip id="veh22" depart="4.22" departLane="best" from="-237319931" to="-8832724" type="veh_passenger"/>
    <trip id="veh23" depart="4.42" departLane="best" from="468510431#0" to="-8841601#1" type="veh_passenger"/>
    <trip id="veh24" depart="4.61" departLane="best" from="-8836422#4" to="-8819667#3" type="veh_passenger"/>
    <trip id="veh25" depart="4.80" departLane="best" from="-8819667#3" to="8840513#7" type="veh_passenger"/>
    <trip id="veh26" depart="4.99" departLane="best" from="468511695#1" to="468516393" type="veh_passenger"/>
    <trip id="veh27" depart="5.18" departLane="best" from="-8803856" to="8813327#1" type="veh_passenger"/>
    <trip id="veh28" depart="5.37" departLane="best" from="-60850502#3" to="-8843628" type="veh_passenger"/>
    <trip id="veh29" depart="5.57" departLane="best" from="8845615#0" to="490392080" type="veh_passenger"/>
    <trip id="veh30" depart="5.76" departLane="best" from="201846630#0" to="60850507" type="veh_passenger"/>
    <trip id="veh31" depart="5.95" departLane="best" from="8826266#1" to="8817781#1" type="veh_passenger"/>
    <trip id="veh32" depart="6.14" departLane="best" from="-8814783" to="-191334402#0" type="veh_passenger"/>
    <trip id="veh33" depart="6.33" departLane="best" from="-8828322#1" to="-8829405#2" type="veh_passenger"/>
    <trip id="veh34" depart="6.53" departLane="best" from="-8813327#1" to="8841122#2" type="veh_passenger"/>
    <trip id="veh35" depart="6.72" departLane="best" from="8834941#0" to="-8837615#0" type="veh_passenger"/>
    <trip id="veh36" depart="6.91" departLane="best" from="468516397#0" to="-8845670#3" type="veh_passenger"/>
    <trip id="veh37" depart="7.10" departLane="best" from="8839391#0" to="171573161#16" type="veh_passenger"/>
    <trip id="veh38" depart="7.29" departLane="best" from="-8819609#5" to="-8825443#0" type="veh_passenger"/>
    <trip id="veh40" depart="7.68" departLane="best" from="232194256#10" to="8837370#1" type="veh_passenger"/>
    <trip id="veh41" depart="7.87" departLane="best" from="-8839765#4" to="-8820767" type="veh_passenger"/>
    <trip id="veh42" depart="8.06" departLane="best" from="8845745#5" to="201846655" type="veh_passenger"/>
    <trip id="veh43" depart="8.25" departLane="best" from="-232098774#2" to="-201846645#1" type="veh_passenger"/>
    <trip id="veh45" depart="8.64" departLane="best" from="8818486" to="171571114#2" type="veh_passenger"/>
    <trip id="veh46" depart="8.83" departLane="best" from="-201846653" to="-8843863#0" type="veh_passenger"/>
    <trip id="veh47" depart="9.02" departLane="best" from="8845745#2" to="206345730" type="veh_passenger"/>
    <trip id="veh48" depart="9.21" departLane="best" from="-171571118#7" to="8810612" type="veh_passenger"/>
    <trip id="veh49" depart="9.41" departLane="best" from="496709628#0" to="232194256#11" type="veh_passenger"/>
    <trip id="veh50" depart="9.60" departLane="best" from="-8819667#3" to="490392080" type="veh_passenger"/>
    <trip id="veh51" depart="9.79" departLane="best" from="-348363958#2" to="171571128#0" type="veh_passenger"/>
    <trip id="veh52" depart="9.98" departLane="best" from="-8843863#0" to="8841302#2" type="veh_passenger"/>
    <trip id="veh54" depart="10.37" departLane="best" from="171571110#1" to="-8816821#0" type="veh_passenger"/>
    <trip id="veh55" depart="10.56" departLane="best" from="8838060#0" to="8833464" type="veh_passenger"/>
    <trip id="veh56" depart="10.75" departLane="best" from="-8825124#0" to="490145558#2" type="veh_passenger"/>
    <trip id="veh57" depart="10.94" departLane="best" from="467528862#0" to="-8809758#0" type="veh_passenger"/>
    <trip id="veh58" depart="11.13" departLane="best" from="8813765#0" to="232194256#4" type="veh_passenger"/>
    <trip id="veh59" depart="11.33" departLane="best" from="8816939#6" to="206346722" type="veh_passenger"/>
    <trip id="veh60" depart="11.52" departLane="best" from="-171571103#11" to="-8839765#4" type="veh_passenger"/>
    <trip id="veh61" depart="11.71" departLane="best" from="-171573148#1" to="8840450#2" type="veh_passenger"/>
    <trip id="veh62" depart="11.90" departLane="best" from="8835417#0" to="8828306#1" type="veh_passenger"/>
    <trip id="veh63" depart="12.09" departLane="best" from="-8827910#1" to="-232098774#1" type="veh_passenger"/>
    <trip id="veh64" depart="12.29" departLane="best" from="8835416" to="8841177#18" type="veh_passenger"/>
    <trip id="veh65" depart="12.48" departLane="best" from="-206346722" to="201846623" type="veh_passenger"/>
    <trip id="veh66" depart="12.67" departLane="best" from="8816562" to="-8803849" type="veh_passenger"/>
    <trip id="veh67" depart="12.86" departLane="best" from="-8845745#3" to="237320457#0" type="veh_passenger"/>
    <trip id="veh68" depart="13.05" departLane="best" from="-8819609#5" to="8833751#2" type="veh_passenger"/>
    <trip id="veh69" depart="13.25" departLane="best" from="-8841177#13" to="-8820260#0" type="veh_passenger"/>
    <trip id="veh70" depart="13.44" departLane="best" from="171725052#1" to="8813365#2" type="veh_passenger"/>
    <trip id="veh71" depart="13.63" departLane="best" from="-8810612" to="-8837489#2" type="veh_passenger"/>
    <trip id="veh72" depart="13.82" departLane="best" from="8845745#0" to="507028646#3" type="veh_passenger"/>
    <trip id="veh73" depart="14.01" departLane="best" from="-8842124#1" to="201846666" type="veh_passenger"/>
    <trip id="veh74" depart="14.21" departLane="best" from="-468507915" to="-8821829#0" type="veh_passenger"/>
    <trip id="veh75" depart="14.40" departLane="best" from="-8830963" to="468510429#2" type="veh_passenger"/>
    <trip id="veh76" depart="14.59" departLane="best" from="-8814783" to="-8820798#1" type="veh_passenger"/>
    <trip id="veh77" depart="14.78" departLane="best" from="-201846662" to="469310910#4" type="veh_passenger"/>
    <trip id="veh78" depart="14.97" departLane="best" from="-8813959" to="8837489#4" type="veh_passenger"/>
    <trip id="veh79" depart="15.16" departLane="best" from="8829405#3" to="-237320457#0" type="veh_passenger"/>
    <trip id="veh80" depart="15.36" departLane="best" from="-8816637#3" to="590842472#0" type="veh_passenger"/>
    <trip id="veh81" depart="15.55" departLane="best" from="-8813473#1" to="-8803856" type="veh_passenger"/>
    <trip id="veh82" depart="15.74" departLane="best" from="8840513#16" to="468097229" type="veh_passenger"/>
    <trip id="veh83" depart="15.93" departLane="best" from="-8845670#8" to="8819609#5" type="veh_passenger"/>
    <trip id="veh84" depart="16.12" departLane="best" from="8820398" to="-8817283#0" type="veh_passenger"/>
    <trip id="veh86" depart="16.51" departLane="best" from="-8841177#13" to="171725043#2" type="veh_passenger"/>
    <trip id="veh87" depart="16.70" departLane="best" from="8807399#0" to="590842478#5" type="veh_passenger"/>
    <trip id="veh89" depart="17.08" departLane="best" from="-8840156#1" to="-8840513#13" type="veh_passenger"/>
    <trip id="veh90" depart="17.28" departLane="best" from="8829749#1" to="-8825674" type="veh_passenger"/>
    <trip id="veh91" depart="17.47" departLane="best" from="-8808704" to="171573148#1" type="veh_passenger"/>
    <trip id="veh92" depart="17.66" departLane="best" from="-8841177#10" to="-8832724" type="veh_passenger"/>
    <trip id="veh93" depart="17.85" departLane="best" from="-8817476#4" to="8840060#2" type="veh_passenger"/>
    <trip id="veh94" depart="18.04" departLane="best" from="-8842130#1" to="8832200#0" type="veh_passenger"/>
    <trip id="veh95" depart="18.24" departLane="best" from="191334402#2" to="-201846667#0" type="veh_passenger"/>
    <trip id="veh96" depart="18.43" departLane="best" from="8846035#3" to="8828322#1" type="veh_passenger"/>
    <trip id="veh97" depart="18.62" departLane="best" from="8842256#10" to="8840445" type="veh_passenger"/>
    <trip id="veh98" depart="18.81" departLane="best" from="8827910#3" to="-8813478#0" type="veh_passenger"/>
    <trip id="veh99" depart="19.00" departLane="best" from="152437910#2" to="-8820260#4" type="veh_passenger"/>
    <trip id="veh100" depart="19.20" departLane="best" from="-8840060#1" to="-232098774#2" type="veh_passenger"/>
    <trip id="veh101" depart="19.39" departLane="best" from="-8837378#4" to="8845613" type="veh_passenger"/>
    <trip id="veh102" depart="19.58" departLane="best" from="-8819667#0" to="8819609#4" type="veh_passenger"/>
    <trip id="veh103" depart="19.77" departLane="best" from="-8843863#2" to="171571114#4" type="veh_passenger"/>
    <trip id="veh104" depart="19.96" departLane="best" from="8841302#0" to="8845745#1" type="veh_passenger"/>
    <trip id="veh105" depart="20.16" departLane="best" from="201846628#1" to="8810237#3" type="veh_passenger"/>
    <trip id="veh106" depart="20.35" departLane="best" from="-599594246#1" to="-8836386" type="veh_passenger"/>
    <trip id="veh107" depart="20.54" departLane="best" from="8842256#1" to="468510410#3" type="veh_passenger"/>
    <trip id="veh108" depart="20.73" departLane="best" from="171725054#4" to="8814783" type="veh_passenger"/>
    <trip id="veh109" depart="20.92" departLane="best" from="-201846637#1" to="468510422#1" type="veh_passenger"/>
    <trip id="veh110" depart="21.12" departLane="best" from="171571114#5" to="8830159" type="veh_passenger"/>
    <trip id="veh111" depart="21.31" departLane="best" from="-599973595#4" to="8842125" type="veh_passenger"/>
    <trip id="veh113" depart="21.69" departLane="best" from="-8816637#1" to="-599973595#0" type="veh_passenger"/>
    <trip id="veh114" depart="21.88" departLane="best" from="8836146#1" to="-8825443#0" type="veh_passenger"/>
    <trip id="veh115" depart="22.08" departLane="best" from="237605168#1" to="469117774" type="veh_passenger"/>
    <trip id="veh116" depart="22.27" departLane="best" from="-8840948#1" to="468510422#0" type="veh_passenger"/>
    <trip id="veh117" depart="22.46" departLane="best" from="171573153" to="8840513#20" type="veh_passenger"/>
    <trip id="veh118" depart="22.65" departLane="best" from="-8812702" to="8809576#6" type="veh_passenger"/>
    <trip id="veh119" depart="22.84" departLane="best" from="-8816821#1" to="-8845670#3" type="veh_passenger"/>
    <trip id="veh120" depart="23.04" departLane="best" from="469310909#0" to="-8836422#2" type="veh_passenger"/>
    <trip id="veh121" depart="23.23" departLane="best" from="-201846663#1" to="171573161#10" type="veh_passenger"/>
    <trip id="veh122" depart="23.42" departLane="best" from="8846035#1" to="8845745#2" type="veh_passenger"/>
    <trip id="veh123" depart="23.61" departLane="best" from="-201846665" to="-8820260#3" type="veh_passenger"/>
    <trip id="veh124" depart="23.80" departLane="best" from="-8819667#0" to="8840513#18" type="veh_passenger"/>
    <trip id="veh125" depart="23.99" departLane="best" from="8835417#1" to="8835191#1" type="veh_passenger"/>
    <trip id="veh126" depart="24.19" departLane="best" from="8825123#1" to="8808476#1" type="veh_passenger"/>
    <trip id="veh127" depart="24.38" departLane="best" from="468097227#2" to="8845615#1" type="veh_passenger"/>
    <trip id="veh128" depart="24.57" departLane="best" from="468516393" to="-171571118#1" type="veh_passenger"/>
    <trip id="veh129" depart="24.76" departLane="best" from="8821829#0" to="-8836422#1" type="veh_passenger"/>
    <trip id="veh130" depart="24.95" departLane="best" from="469080479#1" to="8840716#4" type="veh_passenger"/>
    <trip id="veh131" depart="25.15" departLane="best" from="-469310910#4" to="-590842387#0" type="veh_passenger"/>
    <trip id="veh132" depart="25.34" departLane="best" from="-8820260#2" to="468511702" type="veh_passenger"/>
    <trip id="veh133" depart="25.53" departLane="best" from="60850502#1" to="-8819486#0" type="veh_passenger"/>
    <trip id="veh135" depart="25.91" departLane="best" from="171484636" to="8837489#4" type="veh_passenger"/>
    <trip id="veh136" depart="26.11" departLane="best" from="8827522#0" to="-468510410#5" type="veh_passenger"/>
    <trip id="veh137" depart="26.30" departLane="best" from="-8841177#13" to="-8832366" type="veh_passenger"/>
    <trip id="veh138" depart="26.49" departLane="best" from="-171571103#19" to="8817476#2" type="veh_passenger"/>
    <trip id="veh139" depart="26.68" departLane="best" from="468510431#3" to="-8828728#1" type="veh_passenger"/>
    <trip id="veh140" depart="26.87" departLane="best" from="8809078" to="237605168#2" type="veh_passenger"/>
    <trip id="veh141" depart="27.07" departLane="best" from="-8841177#8" to="-171571118#13" type="veh_passenger"/>
    <trip id="veh142" depart="27.26" departLane="best" from="-201846666" to="8835573#0" type="veh_passenger"/>
    <trip id="veh143" depart="27.45" departLane="best" from="8837378#1" to="237319931" type="veh_passenger"/>
    <trip id="veh144" depart="27.64" departLane="best" from="8825123#3" to="468510415#1" type="veh_passenger"/>
    <trip id="veh145" depart="27.83" departLane="best" from="-590842384#4" to="-60850505#0" type="veh_passenger"/>
    <trip id="veh146" depart="28.03" departLane="best" from="8819486#0" to="8831924" type="veh_passenger"/>
    <trip id="veh147" depart="28.22" departLane="best" from="8837369#0" to="-8819667#4" type="veh_passenger"/>
    <trip id="veh149" depart="28.60" departLane="best" from="8817172#2" to="8835573#2" type="veh_passenger"/>
    <trip id="veh150" depart="28.79" departLane="best" from="-8840450#0" to="469133606#0" type="veh_passenger"/>
    <trip id="veh151" depart="28.99" departLane="best" from="-599594246#0" to="8840513#1" type="veh_passenger"/>
    <trip id="veh152" depart="29.18" departLane="best" from="8832200#0" to="8843863#1" type="veh_passenger"/>
    <trip id="veh153" depart="29.37" departLane="best" from="8820767" to="8835191#1" type="veh_passenger"/>
    <trip id="veh154" depart="29.56" departLane="best" from="-171573160#4" to="8813478#1" type="veh_passenger"/>
    <trip id="veh155" depart="29.75" departLane="best" from="-8830159" to="8840513#11" type="veh_passenger"/>
    <trip id="veh156" depart="29.95" departLane="best" from="8820259#0" to="8832200#5" type="veh_passenger"/>
    <trip id="veh157" depart="30.14" departLane="best" from="8820767" to="-8829405#0" type="veh_passenger"/>
    <trip id="veh158" depart="30.33" departLane="best" from="8832724" to="8830963" type="veh_passenger"/>
    <trip id="veh159" depart="30.52" departLane="best" from="-8813756" to="8824180" type="veh_passenger"/>
    <trip id="veh160" depart="30.71" departLane="best" from="-8845474#7" to="-8837369#1" type="veh_passenger"/>
    <trip id="veh161" depart="30.91" departLane="best" from="8819486#0" to="-8823861#0" type="veh_passenger"/>
    <trip id="veh162" depart="31.10" departLane="best" from="-171573160#1" to="-8817476#0" type="veh_passenger"/>
    <trip id="veh163" depart="31.29" departLane="best" from="-8829316" to="8832200#6" type="veh_passenger"/>
    <trip id="veh164" depart="31.48" departLane="best" from="8842256#0" to="-8832724" type="veh_passenger"/>
    <trip id="veh165" depart="31.67" departLane="best" from="468510436#0" to="-8845745#2" type="veh_passenger"/>
    <trip id="veh166" depart="31.87" departLane="best" from="8844688" to="232194256#1" type="veh_passenger"/>
    <trip id="veh167" depart="32.06" departLane="best" from="8840513#6" to="-590842387#0" type="veh_passenger"/>
    <trip id="veh168" depart="32.25" departLane="best" from="8842256#5" to="-8816821#0" type="veh_passenger"/>
    <trip id="veh169" depart="32.44" departLane="best" from="8842124#2" to="-8829405#0" type="veh_passenger"/>
    <trip id="veh170" depart="32.63" departLane="best" from="-237605168#2" to="171571123#1" type="veh_passenger"/>
    <trip id="veh171" depart="32.83" departLane="best" from="8806417" to="-8837615#0" type="veh_passenger"/>
    <trip id="veh172" depart="33.02" departLane="best" from="348363958#1" to="201846656" type="veh_passenger"/>
    <trip id="veh174" depart="33.40" departLane="best" from="-8817795" to="8808704" type="veh_passenger"/>
    <trip id="veh175" depart="33.59" departLane="best" from="-171571103#13" to="8840411#1" type="veh_passenger"/>
    <trip id="veh176" depart="33.78" departLane="best" from="171725049#1" to="8810612" type="veh_passenger"/>
    <trip id="veh177" depart="33.98" departLane="best" from="-8835573#2" to="-237320327#0" type="veh_passenger"/>
    <trip id="veh178" depart="34.17" departLane="best" from="469080480#0" to="-8840156#2" type="veh_passenger"/>
    <trip id="veh179" depart="34.36" departLane="best" from="-8828322#0" to="8829405#1" type="veh_passenger"/>
    <trip id="veh180" depart="34.55" departLane="best" from="60850507" to="-8836422#3" type="veh_passenger"/>
    <trip id="veh181" depart="34.74" departLane="best" from="-8828277" to="152437910#2" type="veh_passenger"/>
    <trip id="veh182" depart="34.94" departLane="best" from="-8840060#3" to="-8836146#1" type="veh_passenger"/>
    <trip id="veh183" depart="35.13" departLane="best" from="-468510423" to="171571103#8" type="veh_passenger"/>
    <trip id="veh184" depart="35.32" departLane="best" from="8840716#0" to="599974331" type="veh_passenger"/>
    <trip id="veh185" depart="35.51" departLane="best" from="8837378#0" to="469080478" type="veh_passenger"/>
    <trip id="veh186" depart="35.70" departLane="best" from="-8825443#0" to="237320327#2" type="veh_passenger"/>
    <trip id="veh187" depart="35.90" departLane="best" from="-171571103#10" to="-8835417#1" type="veh_passenger"/>
    <trip id="veh188" depart="36.09" departLane="best" from="-8841192#1" to="468510410#4" type="veh_passenger"/>
    <trip id="veh189" depart="36.28" departLane="best" from="468516395" to="171573172#2" type="veh_passenger"/>
    <trip id="veh190" depart="36.47" departLane="best" from="-8842127#1" to="-8820260#4" type="veh_passenger"/>
    <trip id="veh191" depart="36.66" departLane="best" from="-8845670#9" to="8837429" type="veh_passenger"/>
    <trip id="veh192" depart="36.86" departLane="best" from="8819486#0" to="-8813478#4" type="veh_passenger"/>
    <trip id="veh193" depart="37.05" departLane="best" from="-206345730" to="201846662" type="veh_passenger"/>
    <trip id="veh194" depart="37.24" departLane="best" from="468510429#1" to="-8840513#0" type="veh_passenger"/>
    <trip id="veh195" depart="37.43" departLane="best" from="8821976#0" to="8816152" type="veh_passenger"/>
    <trip id="veh196" depart="37.62" departLane="best" from="469310909#3" to="-8821829#0" type="veh_passenger"/>
    <trip id="veh197" depart="37.82" departLane="best" from="-8809758#1" to="-171573161#7" type="veh_passenger"/>
    <trip id="veh198" depart="38.01" departLane="best" from="-8817172#5" to="171725055#4" type="veh_passenger"/>
    <trip id="veh200" depart="38.39" departLane="best" from="-8840513#6" to="469310910#4" type="veh_passenger"/>
    <trip id="veh201" depart="38.58" departLane="best" from="-8808864#1" to="8806423" type="veh_passenger"/>
    <trip id="veh202" depart="38.78" departLane="best" from="171571103#13" to="-8825124#1" type="veh_passenger"/>
    <trip id="veh203" depart="38.97" departLane="best" from="468516397#1" to="-171571103#5" type="veh_passenger"/>
    <trip id="veh204" depart="39.16" departLane="best" from="8812816#1" to="8817368#2" type="veh_passenger"/>
    <trip id="veh205" depart="39.35" departLane="best" from="-237605168#0" to="171571116#3" type="veh_passenger"/>
    <trip id="veh206" depart="39.54" departLane="best" from="-8804839" to="8841431" type="veh_passenger"/>
    <trip id="veh207" depart="39.74" departLane="best" from="171573140#0" to="-201846667#0" type="veh_passenger"/>
    <trip id="veh208" depart="39.93" departLane="best" from="-8817476#3" to="8829405#1" type="veh_passenger"/>
    <trip id="veh209" depart="40.12" departLane="best" from="-8843909#2" to="8820798#1" type="veh_passenger"/>
    <trip id="veh210" depart="40.31" departLane="best" from="469133604" to="8845615#2" type="veh_passenger"/>
    <trip id="veh211" depart="40.50" departLane="best" from="264614810#1" to="8841192#0" type="veh_passenger"/>
    <trip id="veh213" depart="40.89" departLane="best" from="60850505#1" to="201846646#1" type="veh_passenger"/>
    <trip id="veh214" depart="41.08" departLane="best" from="8824475" to="237320327#2" type="veh_passenger"/>
    <trip id="veh215" depart="41.27" departLane="best" from="8837369#0" to="8813765#1" type="veh_passenger"/>
    <trip id="veh216" depart="41.46" departLane="best" from="-8845745#2" to="-8828322#0" type="veh_passenger"/>
    <trip id="veh217" depart="41.66" departLane="best" from="-8817283#2" to="490145558#2" type="veh_passenger"/>
    <trip id="veh218" depart="41.85" departLane="best" from="8816562" to="201846667#1" type="veh_passenger"/>
    <trip id="veh219" depart="42.04" departLane="best" from="-8820260#0" to="-8839391#0" type="veh_passenger"/>
    <trip id="veh220" depart="42.23" departLane="best" from="171725052#2" to="-8807571#0" type="veh_passenger"/>
    <trip id="veh221" depart="42.42" departLane="best" from="-8814783" to="8804839" type="veh_passenger"/>
    <trip id="veh222" depart="42.62" departLane="best" from="590842472#0" to="-232194256#2" type="veh_passenger"/>
    <trip id="veh223" depart="42.81" departLane="best" from="-8840450#2" to="234827703" type="veh_passenger"/>
    <trip id="veh224" depart="43.00" departLane="best" from="-8840716#0" to="-8819609#2" type="veh_passenger"/>
    <trip id="veh225" depart="43.19" departLane="best" from="-8841122#0" to="8837489#4" type="veh_passenger"/>
    <trip id="veh226" depart="43.38" departLane="best" from="232194256#1" to="8805007#1" type="veh_passenger"/>
    <trip id="veh227" depart="43.57" departLane="best" from="8829405#0" to="8817283#2" type="veh_passenger"/>
    <trip id="veh228" depart="43.77" departLane="best" from="-8837429" to="-171571103#6" type="veh_passenger"/>
    <trip id="veh229" depart="43.96" departLane="best" from="-8833751#2" to="8816637#1" type="veh_passenger"/>
    <trip id="veh230" depart="44.15" departLane="best" from="8828728#1" to="8841302#1" type="veh_passenger"/>
    <trip id="veh231" depart="44.34" departLane="best" from="-8840948#1" to="8814783" type="veh_passenger"/>
    <trip id="veh232" depart="44.53" departLane="best" from="171725058#0" to="468511696" type="veh_passenger"/>
    <trip id="veh233" depart="44.73" departLane="best" from="-8813478#5" to="-8820767" type="veh_passenger"/>
    <trip id="veh234" depart="44.92" departLane="best" from="-8841431" to="-171725055#1" type="veh_passenger"/>
    <trip id="veh235" depart="45.11" departLane="best" from="-8830497#0" to="60850497" type="veh_passenger"/>
    <trip id="veh236" depart="45.30" departLane="best" from="-8840445" to="-8813473#4" type="veh_passenger"/>
    <trip id="veh237" depart="45.49" departLane="best" from="-8845615#3" to="-60850505#0" type="veh_passenger"/>
    <trip id="veh238" depart="45.69" departLane="best" from="468510408" to="-171725042#0" type="veh_passenger"/>
    <trip id="veh239" depart="45.88" departLane="best" from="-8839653" to="465282272" type="veh_passenger"/>
    <trip id="veh242" depart="46.45" departLane="best" from="-201846628#1" to="-8843628" type="veh_passenger"/>
    <trip id="veh243" depart="46.65" departLane="best" from="-8813365#1" to="-8840060#3" type="veh_passenger"/>
    <trip id="veh244" depart="46.84" departLane="best" from="8813478#5" to="-8843628" type="veh_passenger"/>
    <trip id="veh245" depart="47.03" departLane="best" from="8813327#0" to="8828306#2" type="veh_passenger"/>
    <trip id="veh246" depart="47.22" departLane="best" from="-8817781#1" to="-348363958#2" type="veh_passenger"/>
    <trip id="veh247" depart="47.41" departLane="best" from="-171573148#1" to="232194256#4" type="veh_passenger"/>
    <trip id="veh248" depart="47.61" departLane="best" from="8846035#4" to="-8841122#1" type="veh_passenger"/>
    <trip id="veh249" depart="47.80" departLane="best" from="468511702" to="8819261" type="veh_passenger"/>
    <trip id="veh250" depart="47.99" departLane="best" from="468516387" to="8816637#2" type="veh_passenger"/>
    <trip id="veh251" depart="48.18" departLane="best" from="8841177#12" to="-8818486" type="veh_passenger"/>
    <trip id="veh252" depart="48.37" departLane="best" from="-171573148#1" to="-8809576#8" type="veh_passenger"/>
    <trip id="veh253" depart="48.57" departLane="best" from="-468510415#1" to="590842472#2" type="veh_passenger"/>
    <trip id="veh254" depart="48.76" departLane="best" from="201846637#0" to="-8820767" type="veh_passenger"/>
    <trip id="veh255" depart="48.95" departLane="best" from="590842384#5" to="8817283#2" type="veh_passenger"/>
    <trip id="veh256" depart="49.14" departLane="best" from="-8802223" to="468516390#0" type="veh_passenger"/>
    <trip id="veh257" depart="49.33" departLane="best" from="8810237#1" to="-590842385#2" type="veh_passenger"/>
    <trip id="veh258" depart="49.53" departLane="best" from="8823861#0" to="8842130#1" type="veh_passenger"/>
    <trip id="veh259" depart="49.72" departLane="best" from="-237605168#2" to="-171573170#0" type="veh_passenger"/>
    <trip id="veh260" depart="49.91" departLane="best" from="-8828306#2" to="599974331" type="veh_passenger"/>
    <trip id="veh261" depart="50.10" departLane="best" from="8841302#1" to="-8845670#5" type="veh_passenger"/>
    <trip id="veh262" depart="50.29" departLane="best" from="599974331" to="-281442601#0" type="veh_passenger"/>
    <trip id="veh263" depart="50.49" departLane="best" from="535531720#2" to="469310909#6" type="veh_passenger"/>
    <trip id="veh264" depart="50.68" departLane="best" from="-237319931" to="8817476#5" type="veh_passenger"/>
    <trip id="veh265" depart="50.87" departLane="best" from="8828306#3" to="468510443" type="veh_passenger"/>
    <trip id="veh266" depart="51.06" departLane="best" from="-468507915" to="8845475" type="veh_passenger"/>
    <trip id="veh267" depart="51.25" departLane="best" from="8817283#0" to="-8840716#5" type="veh_passenger"/>
    <trip id="veh268" depart="51.45" departLane="best" from="-8841192#0" to="-8842256#0" type="veh_passenger"/>
    <trip id="veh269" depart="51.64" departLane="best" from="171571118#12" to="-8840513#18" type="veh_passenger"/>
    <trip id="veh270" depart="51.83" departLane="best" from="8828306#2" to="8825442#2" type="veh_passenger"/>
    <trip id="veh271" depart="52.02" departLane="best" from="-237320457#0" to="8842125" type="veh_passenger"/>
    <trip id="veh272" depart="52.21" departLane="best" from="468510430#1" to="8827553#1" type="veh_passenger"/>
    <trip id="veh273" depart="52.40" departLane="best" from="590842472#3" to="171571128#1" type="veh_passenger"/>
    <trip id="veh274" depart="52.60" departLane="best" from="-8820259#0" to="8823875#12" type="veh_passenger"/>
    <trip id="veh275" depart="52.79" departLane="best" from="171725049#0" to="201846619" type="veh_passenger"/>
    <trip id="veh276" depart="52.98" departLane="best" from="-8841431" to="8813365#4" type="veh_passenger"/>
    <trip id="veh277" depart="53.17" departLane="best" from="-8819675" to="8830125" type="veh_passenger"/>
    <trip id="veh278" depart="53.36" departLane="best" from="8824475" to="-468507916#0" type="veh_passenger"/>
    <trip id="veh279" depart="53.56" departLane="best" from="8835573#0" to="-8825124#1" type="veh_passenger"/>