<?xml version="1.0" encoding="UTF-8"?>

<!-- generated on Fri Nov  9 13:29:04 2018 by Eclipse SUMO polyconvert Version 1.0.1
<configuration xmlns:xsi="http://www.w3.org/2001/XMLSchema-instance" xsi:noNamespaceSchemaLocation="http://sumo.dlr.de/xsd/polyconvertConfiguration.xsd">

    <input>
        <net-file value="/home/james/sumo-1.0.1/tools/2018-11-09-13-28-55/osm.net.xml"/>
        <osm-files value="/home/james/sumo-1.0.1/tools/2018-11-09-13-28-55/osm_bbox.osm.xml"/>
        <osm.keep-full-type value="true"/>
        <type-file value="/home/james/sumo-1.0.1/data/typemap/osmPolyconvert.typ.xml"/>
    </input>

    <output>
        <output-file value="/home/james/sumo-1.0.1/tools/2018-11-09-13-28-55/osm.poly.xml"/>
    </output>

    <processing>
        <poi-layer-offset value="5"/>
    </processing>

    <report>
        <verbose value="true"/>
    </report>

</configuration>
-->

<additional xmlns:xsi="http://www.w3.org/2001/XMLSchema-instance" xsi:noNamespaceSchemaLocation="http://sumo.dlr.de/xsd/additional_file.xsd">
    <location netOffset="-307307.03,-4297118.37" convBoundary="-153.93,-0.00,5956.80,4833.64" origBoundary="-77.221384,38.802527,-77.151152,38.845619" projParameter="+proj=utm +zone=18 +ellps=WGS84 +datum=WGS84 +units=m +no_defs"/>

    <poly id="144402819" type="leisure.golf_course" color="207,245,201" fill="1" layer="-2.00" shape="4780.487397,2968.838686 4795.032142,2978.543745 4809.316566,2958.938524 4824.512066,2940.022446 4840.594178,2921.862726 4859.684590,2902.354731 5244.972874,2544.293775 5246.764618,2541.819494 5247.650867,2538.889117 5247.100532,2534.349208 5245.057109,2531.321517 5212.650887,2506.480254 5180.304025,2479.749912 5004.293651,2324.061916 4994.809295,2316.424275 4979.711729,2306.154445 4965.548660,2294.629897 4950.103604,2279.959779 4889.965708,2226.459892 4885.807305,2224.737201 4881.301323,2224.477460 4763.890089,2264.493098 4937.757469,2414.152583 5001.692236,2509.960615 4986.087293,2606.307944 4963.907451,2628.553837 4860.604753,2710.565562 4837.542212,2704.326950 4801.048136,2750.410086 4740.993065,2797.784811 4702.896648,2816.177934 4682.484124,2801.903753 4661.649267,2808.283337 4655.410549,2835.304751 4560.400942,2845.598422 4526.922485,2824.671994 4511.675726,2805.178562 4458.755084,2773.931155 4435.902985,2745.834551 4426.412663,2749.657828 4343.124505,2676.034691 4330.065996,2669.704252 4321.285593,2662.095092 4326.032817,2646.191345 4284.567572,2633.939636 4236.042565,2657.246817 4220.192364,2674.536119 4191.794134,2702.584454 4259.328327,2761.300303 4285.027383,2782.699237 4596.991656,3028.835797 4633.958319,2984.472683 4755.228348,2951.991872 4780.487397,2968.838686"/>
    <poly id="144450323" type="building.yes" color="255,230,230" fill="1" layer="-1.00" shape="1608.214963,3397.633815 1613.080111,3396.594829 1612.149634,3392.586140 1645.849341,3383.500684 1646.754853,3388.276222 1685.099421,3378.379383 1684.070012,3374.228707 1708.163751,3368.773114 1707.367955,3365.305317 1698.513591,3326.950989 1697.864314,3324.157068 1596.328751,3349.191573 1597.041505,3352.095008 1606.782485,3390.816557 1608.214963,3397.633815"/>
    <poly id="144450323#1" type="shop.supermarket" color="237,199,255" fill="1" layer="-1.00" shape="1608.214963,3397.633815 1613.080111,3396.594829 1612.149634,3392.586140 1645.849341,3383.500684 1646.754853,3388.276222 1685.099421,3378.379383 1684.070012,3374.228707 1708.163751,3368.773114 1707.367955,3365.305317 1698.513591,3326.950989 1697.864314,3324.157068 1596.328751,3349.191573 1597.041505,3352.095008 1606.782485,3390.816557 1608.214963,3397.633815"/>
    <poly id="144450479" type="building.yes" color="255,230,230" fill="1" layer="-1.00" shape="1514.367375,3370.434936 1516.150349,3376.655165 1554.831031,3367.371465 1553.522210,3361.361897 1587.795628,3352.651042 1587.939545,3354.657578 1597.041505,3352.095008 1606.782485,3390.816557 1598.237575,3392.344030 1598.692426,3394.998267 1594.414609,3395.179123 1595.024231,3397.407639 1594.320151,3400.989319 1588.930319,3399.720019 1584.759915,3400.753377 1583.752663,3397.523893 1568.477089,3401.612345 1568.285748,3399.440376 1519.544424,3411.143217 1521.680164,3418.665331 1481.059685,3428.540146 1468.944221,3380.347887 1514.367375,3370.434936"/>
    <poly id="144450485" type="building.yes" color="255,230,230" fill="1" layer="-1.00" shape="1723.993469,3319.896254 1733.083577,3358.666914 1707.367955,3365.305317 1698.513591,3326.950989 1723.993469,3319.896254"/>
    <poly id="144451761" type="amenity.place_of_worship" color="237,199,199" fill="1" layer="-1.00" shape="1744.607435,3363.253316 1807.848729,3348.048919 1802.169435,3321.411549 1738.160012,3337.189730 1744.607435,3363.253316"/>
    <poly id="144451761#1" type="building.yes" color="255,230,230" fill="1" layer="-1.00" shape="1744.607435,3363.253316 1807.848729,3348.048919 1802.169435,3321.411549 1738.160012,3337.189730 1744.607435,3363.253316"/>
    <poly id="152439051" type="building.yes" color="255,230,230" fill="1" layer="-1.00" shape="2406.821480,3337.813191 2399.576745,3353.345220 2399.578697,3356.321296 2401.802587,3358.866468 2407.230911,3361.745605 2392.312384,3393.386327 2427.641806,3409.473322 2426.294267,3411.593393 2432.502068,3414.742564 2447.988995,3380.722931 2453.581424,3383.564844 2464.937486,3358.739327 2438.723425,3346.797628 2435.182831,3354.533900 2425.999339,3350.812058 2425.243598,3348.276062 2422.703156,3346.293728 2406.821480,3337.813191"/>
    <poly id="152439054" type="amenity.restaurant" color="237,199,199" fill="1" layer="-1.00" shape="2213.317080,3274.242622 2241.442966,3288.003313 2260.893341,3246.880852 2231.750987,3233.477655 2213.317080,3274.242622"/>
    <poly id="152439054#1" type="building.yes" color="255,230,230" fill="1" layer="-1.00" shape="2213.317080,3274.242622 2241.442966,3288.003313 2260.893341,3246.880852 2231.750987,3233.477655 2213.317080,3274.242622"/>
    <poly id="152439057" type="amenity.parking" color="184,184,179" fill="1" layer="-1.00" shape="2350.262526,3262.369243 2394.615100,3282.703670 2402.046059,3284.335400 2409.661880,3281.365257 2423.901732,3269.929647 2467.301903,3236.828196 2432.672808,3065.721572 2381.501144,3075.811499 2371.979499,3077.194981 2336.448296,3084.966395 2322.578706,3086.509860 2332.717837,3152.807191 2344.821353,3230.017941 2350.262526,3262.369243"/>
    <poly id="152439064" type="building.retail" color="255,230,230" fill="1" layer="-1.00" shape="2416.436098,3230.664110 2462.112141,3221.450246 2432.421708,3081.318917 2385.603964,3091.493122 2386.984372,3100.510506 2385.162404,3102.408765 2405.711409,3201.460137 2408.277659,3201.620639 2411.541750,3201.542294 2416.436098,3230.664110"/>
    <poly id="152439068" type="amenity.public_building" color="237,199,199" fill="1" layer="-1.00" shape="2308.574062,3321.149314 2318.460237,3325.553763 2319.785377,3322.501396 2357.232845,3339.236851 2365.274116,3322.153174 2328.764136,3305.395165 2317.208719,3302.374487 2308.574062,3321.149314"/>
    <poly id="152439068#1" type="building.yes" color="255,230,230" fill="1" layer="-1.00" shape="2308.574062,3321.149314 2318.460237,3325.553763 2319.785377,3322.501396 2357.232845,3339.236851 2365.274116,3322.153174 2328.764136,3305.395165 2317.208719,3302.374487 2308.574062,3321.149314"/>
    <poly id="152439069" type="amenity.parking" color="184,184,179" fill="1" layer="-1.00" shape="2189.106425,3255.335187 2232.632350,3318.609232 2235.619998,3317.149334 2237.019379,3320.080736 2273.241229,3295.545956 2277.437752,3292.702235 2285.656118,3295.292179 2288.856331,3257.114251 2263.566821,3244.273599 2241.442966,3288.003313 2213.317080,3274.242622 2232.378813,3230.686334 2212.526652,3221.824038 2208.627662,3221.506837 2205.357211,3223.850829 2201.763822,3229.745061 2189.106425,3255.335187"/>
    <poly id="152535378" type="building.yes" color="255,230,230" fill="1" layer="-1.00" shape="2579.955898,3427.173795 2564.412998,3420.128476 2561.551898,3418.897822 2550.906997,3442.962103 2549.868586,3445.296835 2567.218969,3453.464789 2579.955898,3427.173795"/>
    <poly id="152535382" type="building.yes" color="255,230,230" fill="1" layer="-1.00" shape="2482.167368,3371.285344 2497.171641,3379.043045 2477.840539,3414.309722 2482.089050,3416.528710 2469.389155,3440.731263 2461.988794,3433.490753 2453.014909,3428.364634 2482.167368,3371.285344"/>
    <poly id="152535386" type="building.yes" color="255,230,230" fill="1" layer="-1.00" shape="2534.750597,3387.891648 2571.856201,3404.169865 2564.412998,3420.128476 2561.551898,3418.897822 2528.397293,3404.745861 2534.750597,3387.891648"/>
    <poly id="152535388" type="amenity.parking" color="184,184,179" fill="1" layer="-1.00" shape="2408.276202,3311.570625 2414.772579,3314.435237 2413.143806,3320.037904 2413.611657,3323.968926 2415.358458,3325.093016 2418.120161,3323.627508 2420.151004,3321.024629 2446.718286,3335.012209 2446.431460,3338.261733 2448.808025,3340.292426 2451.368902,3340.230970 2452.838843,3337.419462 2454.942811,3333.882023 2473.004790,3342.732324 2471.221746,3346.250952 2474.868222,3348.717588 2477.981486,3352.129834 2478.316001,3356.297261 2474.317791,3364.510902 2455.393316,3401.155996 2449.925355,3406.395486 2445.564969,3409.287469 2444.457402,3411.634981 2448.962415,3414.769506 2444.074573,3424.636941 2439.630046,3433.794131 2433.278260,3431.159238 2430.588782,3435.632448 2380.890539,3412.927595 2360.869386,3413.641479 2355.691983,3411.444857 2356.989405,3407.238247 2356.010454,3405.174023 2352.489678,3404.325744 2398.261446,3311.577813 2403.695663,3314.701116 2405.329927,3315.117190 2408.276202,3311.570625"/>
    <poly id="152535390" type="building.yes" color="255,230,230" fill="1" layer="-1.00" shape="2633.430158,3484.592135 2637.004132,3478.243272 2640.086245,3480.723508 2655.487334,3452.514252 2673.690949,3463.671409 2667.022870,3476.824003 2716.332069,3502.560434 2703.564875,3523.976861 2633.430158,3484.592135"/>
    <poly id="152535394" type="amenity.parking" color="184,184,179" fill="1" layer="-1.00" shape="2526.699979,3382.510095 2494.129417,3452.441887 2493.562772,3457.785849 2494.865005,3463.551378 2506.254212,3472.328638 2527.116717,3487.141828 2532.999663,3489.788038 2547.164647,3491.535976 2561.377566,3491.661470 2568.587351,3477.562970 2579.744380,3457.106635 2567.218969,3453.464789 2549.868586,3445.296835 2539.096068,3466.210399 2522.267588,3459.884509 2518.953549,3457.876287 2529.142766,3435.821773 2517.596902,3430.290876 2528.397293,3404.745861 2534.750597,3387.891648 2526.699979,3382.510095"/>
    <poly id="152535400" type="building.yes" color="255,230,230" fill="1" layer="-1.00" shape="2618.558161,3457.341890 2616.091797,3461.343275 2626.237437,3466.441474 2628.011570,3462.911992 2640.050953,3440.124774 2630.597261,3434.543558 2618.558161,3457.341890"/>
    <poly id="152535402" type="building.yes" color="255,230,230" fill="1" layer="-1.00" shape="2550.906997,3442.962103 2547.436438,3440.946518 2537.263952,3463.700214 2522.906406,3457.548254 2522.267588,3459.884509 2518.953549,3457.876287 2529.142766,3435.821773 2517.596902,3430.290876 2528.397293,3404.745861 2561.551898,3418.897822 2550.906997,3442.962103"/>
    <poly id="152535407" type="amenity.parking" color="184,184,179" fill="1" layer="-1.00" shape="2592.659123,3471.188895 2622.863366,3419.182104 2635.397474,3417.027063 2658.957537,3428.066876 2656.753462,3433.227975 2660.086462,3436.390710 2662.312886,3432.161889 2685.802549,3443.891968 2683.897306,3448.113083 2685.328436,3449.477999 2689.297824,3444.041394 2698.350254,3448.466277 2696.245950,3451.992550 2697.325881,3454.287594 2699.303482,3453.085284 2701.435451,3450.713260 2736.269516,3469.367577 2734.107799,3472.673117 2736.252963,3474.476232 2738.016237,3470.491736 2747.212819,3475.135316 2744.986364,3479.364112 2747.281585,3481.630040 2749.834814,3477.626618 2806.125018,3506.905356 2804.005198,3511.597986 2816.869316,3517.786208 2818.750171,3514.720622 2827.765611,3521.234252 2825.993626,3525.218935 2827.457946,3527.971193 2829.256724,3529.094124 2832.038772,3524.852046 2897.882211,3559.921443 2894.985789,3565.554348 2901.509668,3569.584691 2895.485821,3580.633932 2891.103947,3578.640026 2889.525043,3580.532350 2892.372656,3583.018293 2896.060075,3585.028827 2883.743661,3592.275405 2881.769334,3587.447630 2878.723310,3586.832066 2876.178995,3587.581496 2878.622081,3592.398045 2833.805535,3617.835508 2820.928349,3624.873524 2809.582335,3631.652785 2757.989958,3604.104918 2767.234361,3575.588106 2767.196090,3570.003253 2765.469721,3566.102374 2756.950953,3560.742929 2698.914730,3530.362591 2695.318389,3535.779149 2668.885808,3521.565473 2672.939724,3515.671527 2592.659123,3471.188895"/>
    <poly id="152535419" type="amenity.parking" color="184,184,179" fill="1" layer="-1.00" shape="2487.212502,3348.421397 2482.299108,3357.589805 2486.014437,3360.754404 2488.050992,3364.181383 2485.629130,3370.036265 2502.747864,3378.676056 2505.315284,3374.905414 2506.606235,3374.408035 2507.460528,3376.708470 2503.916795,3384.677988 2499.219371,3382.936165 2483.196627,3414.181203 2485.940846,3415.969881 2485.863201,3418.525878 2471.288145,3446.027167 2480.625158,3452.532708 2513.944755,3388.846063 2510.977334,3387.529137 2510.227214,3385.226203 2510.888402,3383.822225 2512.893687,3383.774117 2515.499014,3385.566137 2518.071762,3382.017470 2514.540081,3380.714079 2513.321194,3378.422391 2514.685536,3377.001544 2519.778603,3379.666698 2524.516493,3369.336507 2516.968166,3365.342135 2514.027459,3369.121728 2511.930035,3368.949947 2510.727654,3367.346369 2512.276325,3363.833373 2499.781891,3357.869950 2497.293182,3360.939095 2495.212265,3361.455428 2494.453458,3359.152704 2497.025409,3353.760631 2487.212502,3348.421397"/>
    <poly id="152773379" type="building.yes" color="255,230,230" fill="1" layer="-1.00" shape="2715.053353,3260.370777 2716.981528,3261.090809 2716.143981,3265.286326 2740.452820,3268.412866 2743.897470,3239.257687 2769.604018,3242.350831 2771.061868,3225.614132 2773.403252,3224.003354 2773.252697,3219.531685 2778.849482,3217.842922 2777.259097,3212.006528 2780.489944,3210.541018 2778.345678,3198.987763 2790.957795,3200.073755 2805.312688,3079.541600 2777.234409,3074.639502 2742.165483,3069.449686 2738.634384,3095.364292 2734.881637,3096.076083 2715.053353,3260.370777"/>
    <poly id="152773379#1" type="shop.mall" color="237,199,255" fill="1" layer="-1.00" shape="2715.053353,3260.370777 2716.981528,3261.090809 2716.143981,3265.286326 2740.452820,3268.412866 2743.897470,3239.257687 2769.604018,3242.350831 2771.061868,3225.614132 2773.403252,3224.003354 2773.252697,3219.531685 2778.849482,3217.842922 2777.259097,3212.006528 2780.489944,3210.541018 2778.345678,3198.987763 2790.957795,3200.073755 2805.312688,3079.541600 2777.234409,3074.639502 2742.165483,3069.449686 2738.634384,3095.364292 2734.881637,3096.076083 2715.053353,3260.370777"/>
    <poly id="152773386" type="building.yes" color="255,230,230" fill="1" layer="-1.00" shape="2805.312688,3079.541600 2808.190413,3063.692618 2779.629909,3057.880351 2777.234409,3074.639502 2805.312688,3079.541600"/>
    <poly id="152774444" type="building.yes" color="255,230,230" fill="1" layer="-1.00" shape="2679.713702,3049.602594 2675.153841,3034.398214 2690.910536,3030.766846 2694.979503,3045.061290 2679.713702,3049.602594"/>
    <poly id="152774446" type="amenity.fuel" color="237,199,199" fill="1" layer="-1.00" shape="2775.677877,3027.791906 2773.118227,3018.480687 2786.301614,3015.843968 2785.874710,3013.977467 2794.455349,3012.106203 2796.012033,3023.062764 2775.677877,3027.791906"/>
    <poly id="152774446#1" type="building.yes" color="255,230,230" fill="1" layer="-1.00" shape="2775.677877,3027.791906 2773.118227,3018.480687 2786.301614,3015.843968 2785.874710,3013.977467 2794.455349,3012.106203 2796.012033,3023.062764 2775.677877,3027.791906"/>
    <poly id="152774452" type="building.yes" color="255,230,230" fill="1" layer="-1.00" shape="2619.175057,3264.989918 2601.014374,3265.425363 2600.267498,3253.838633 2618.896982,3253.391948 2619.175057,3264.989918"/>
    <poly id="152774456" type="amenity.post_office" color="237,199,199" fill="1" layer="-1.00" shape="2518.373913,3180.622405 2541.705205,3162.894555 2540.709508,3160.131102 2546.738163,3159.064797 2536.846173,3115.670824 2493.264968,3124.611858 2499.972070,3151.824588 2487.928709,3154.900858 2490.564291,3167.363981 2513.289367,3163.109758 2514.075662,3165.833812 2518.373913,3180.622405"/>
    <poly id="152774456#1" type="building.commercial" color="255,230,230" fill="1" layer="-1.00" shape="2518.373913,3180.622405 2541.705205,3162.894555 2540.709508,3160.131102 2546.738163,3159.064797 2536.846173,3115.670824 2493.264968,3124.611858 2499.972070,3151.824588 2487.928709,3154.900858 2490.564291,3167.363981 2513.289367,3163.109758 2514.075662,3165.833812 2518.373913,3180.622405"/>
    <poly id="152774457" type="building.yes" color="255,230,230" fill="1" layer="-1.00" shape="2590.848864,3191.410537 2582.742742,3183.720428 2567.636616,3192.733421 2570.483912,3197.007161 2562.268512,3202.145874 2565.584586,3206.408370 2572.450423,3201.135450 2577.137020,3202.422279 2590.848864,3191.410537"/>
    <poly id="152774458" type="amenity.fast_food" color="237,199,199" fill="1" layer="-1.00" shape="2633.826851,3076.521410 2635.179488,3065.550646 2659.712030,3068.560565 2658.554913,3077.905319 2652.448097,3077.163308 2652.252279,3078.778214 2633.826851,3076.521410"/>
    <poly id="152774458#1" type="building.retail" color="255,230,230" fill="1" layer="-1.00" shape="2633.826851,3076.521410 2635.179488,3065.550646 2659.712030,3068.560565 2658.554913,3077.905319 2652.448097,3077.163308 2652.252279,3078.778214 2633.826851,3076.521410"/>
    <poly id="152774461" type="building.yes" color="255,230,230" fill="1" layer="-1.00" shape="2597.924569,3214.450147 2600.857120,3217.933402 2604.547766,3216.445689 2608.896397,3222.837796 2592.776440,3232.674608 2586.023296,3223.086428 2597.924569,3214.450147"/>
    <poly id="152775371" type="building.yes" color="255,230,230" fill="1" layer="-1.00" shape="2632.950248,2945.382331 2649.233995,2944.525588 2646.964896,2927.411792 2630.753787,2929.488336 2632.950248,2945.382331"/>
    <poly id="152775373" type="leisure.park" color="207,245,201" fill="1" layer="-2.00" shape="2210.404741,3201.475229 2228.328418,3210.328330 2224.004925,3185.834742 2223.444566,3181.672744 2219.251584,3181.773483 2210.404741,3201.475229"/>
    <poly id="152775376" type="amenity.pharmacy" color="237,199,199" fill="1" layer="-1.00" shape="2146.075777,3161.377555 2182.215863,3180.409083 2193.773925,3176.300136 2190.960872,3143.819122 2180.787120,3146.617735 2168.085679,3149.776940 2146.362128,3157.028636 2146.075777,3161.377555"/>
    <poly id="152775376#1" type="building.construction" color="255,230,230" fill="1" layer="-1.00" shape="2146.075777,3161.377555 2182.215863,3180.409083 2193.773925,3176.300136 2190.960872,3143.819122 2180.787120,3146.617735 2168.085679,3149.776940 2146.362128,3157.028636 2146.075777,3161.377555"/>
    <poly id="152775377" type="building.yes" color="255,230,230" fill="1" layer="-1.00" shape="2531.762564,2981.223344 2521.917308,2940.149192 2484.419331,2950.332419 2493.795718,2991.406680 2531.762564,2981.223344"/>
    <poly id="152775377#1" type="shop.car_parts" color="237,199,255" fill="1" layer="-1.00" shape="2531.762564,2981.223344 2521.917308,2940.149192 2484.419331,2950.332419 2493.795718,2991.406680 2531.762564,2981.223344"/>
    <poly id="152775383" type="building.yes" color="255,230,230" fill="1" layer="-1.00" shape="2693.363051,2938.826091 2688.705179,2899.959504 2684.531644,2900.514823 2677.262458,2830.617092 2656.798716,2832.495656 2656.260922,2829.265913 2651.610134,2829.843792 2651.083244,2827.069089 2614.840063,2831.646916 2617.184706,2851.546228 2621.997550,2855.917233 2650.768131,2853.062121 2657.907319,2857.366281 2667.870369,2942.524211 2693.363051,2938.826091"/>
    <poly id="152775389" type="amenity.pharmacy" color="237,199,199" fill="1" layer="-1.00" shape="2251.473392,3010.216452 2257.772160,3037.749776 2253.632305,3039.703741 2257.642785,3053.699581 2274.845073,3049.866077 2274.259040,3046.804083 2286.773806,3044.182581 2278.356079,3004.007185 2251.473392,3010.216452"/>
    <poly id="152775389#1" type="building.retail" color="255,230,230" fill="1" layer="-1.00" shape="2251.473392,3010.216452 2257.772160,3037.749776 2253.632305,3039.703741 2257.642785,3053.699581 2274.845073,3049.866077 2274.259040,3046.804083 2286.773806,3044.182581 2278.356079,3004.007185 2251.473392,3010.216452"/>
    <poly id="152777190" type="building.yes" color="255,230,230" fill="1" layer="-1.00" shape="1972.232538,3371.943682 1965.570582,3347.040037 1872.888011,3367.837978 1879.641612,3395.815437 1972.232538,3371.943682"/>
    <poly id="152777199" type="building.yes" color="255,230,230" fill="1" layer="-1.00" shape="1931.498641,3311.435533 1916.827090,3315.730858 1914.322169,3308.373015 1906.896044,3309.473444 1902.739052,3291.938783 1912.020262,3289.239011 1910.901621,3282.458581 1906.719905,3283.025626 1903.478287,3264.547223 1906.239929,3263.081534 1902.705682,3251.572994 1926.345422,3246.362226 1926.939190,3250.823243 1947.761604,3245.846909 1950.121508,3247.178250 1917.702800,3255.387552 1931.498641,3311.435533"/>
    <poly id="152777237" type="building.yes" color="255,230,230" fill="1" layer="-1.00" shape="1950.121508,3247.178250 1917.702800,3255.387552 1931.498641,3311.435533 1937.871979,3337.334444 1970.277005,3329.292108 1950.121508,3247.178250"/>
    <poly id="171846564" type="waterway.stream" color="181,209,209" fill="0" layer="-4.00" shape="779.566387,3293.741022 770.615240,3299.299261 760.386627,3303.755721 750.030205,3307.238042 744.159050,3307.624509 734.810428,3306.451632 724.175183,3300.212690 717.554656,3296.197502 703.234449,3291.669164 689.004273,3290.858874 678.409105,3292.015005 668.754854,3297.590392 660.032525,3302.910011 657.070050,3305.758044 651.916023,3314.233920 644.312080,3317.671916 637.025770,3318.803472 627.934113,3318.557322 619.081981,3314.574070 610.231757,3309.235960 597.566128,3305.600549 587.194347,3306.296081 578.153235,3308.136520 568.722159,3313.240212 563.768993,3320.323147 564.004891,3330.056597 565.844846,3338.596241 563.706548,3346.776993 560.681425,3356.356271 553.700665,3366.508943 548.454323,3370.811618 539.415910,3373.118455 530.324304,3372.872419 521.022934,3367.556449 512.535102,3359.611069 496.979262,3356.068097 489.566645,3354.137846 481.944814,3351.102164 474.127029,3345.716959 462.601031,3339.288959 454.848157,3334.790606 451.000461,3329.786670 447.107543,3322.918174 444.773449,3312.991290 439.982530,3307.777024 433.897919,3306.525343 425.305892,3307.899757 421.245445,3313.106585 421.958571,3323.528088 423.154805,3334.171082 422.190943,3342.778706 416.487182,3347.558980 409.487659,3347.262338 400.763562,3342.832014 392.861443,3333.973033 385.348169,3331.834321 377.699379,3333.419115 371.363693,3331.485056 366.631767,3328.346057 362.975790,3321.938265 360.714828,3315.030214 356.850097,3309.327110 347.707775,3306.994748 338.870058,3307.908804 329.244870,3310.019119 321.556118,3313.537226 316.511044,3326.130696 314.703307,3336.469006 312.888387,3347.584849 308.098602,3355.663455 302.570980,3361.972047 291.413810,3366.451668 278.368989,3368.311893 266.936506,3367.889769"/>
    <poly id="191334406" type="waterway.stream" color="181,209,209" fill="0" layer="-4.00" shape="4630.053921,3225.593740 4638.886494,3201.386863 4659.208345,3177.451618 4675.352659,3155.725408 4685.814980,3140.163854"/>
    <poly id="191334407" type="waterway.river" color="181,209,209" fill="0" layer="-4.00" shape="5241.056416,2498.779438 5244.271024,2494.761284 5250.404328,2490.007857 5258.045855,2485.851751 5265.222098,2484.060843 5270.802136,2483.462555 5277.137048,2485.400505 5281.908798,2489.929480 5288.949259,2492.317160 5296.161461,2491.680315 5302.152319,2488.984662 5307.622725,2483.747237 5312.858992,2478.526453 5318.626472,2476.302488 5329.077833,2474.889540 5343.311917,2475.486014 5357.542561,2476.304689 5375.214242,2474.965528 5384.066208,2474.978519 5394.297618,2473.815156 5406.138072,2472.369500 5416.534925,2468.648185 5424.643339,2466.602210 5432.299191,2465.255420 5437.454462,2466.532865 5441.953192,2469.435993 5447.212503,2475.119539 5452.482551,2481.258124 5459.286226,2483.185148 5465.364664,2484.196510 5471.380767,2482.199985 5476.627881,2477.434351 5481.635352,2472.452286 5487.577020,2467.670262 5493.353231,2465.446221 5500.485518,2461.790984 5508.026631,2455.583137 5514.867712,2449.158625 5521.747050,2444.354496 5529.408436,2443.240869 5541.541546,2443.887291 5550.386233,2445.799536 5560.360958,2451.793844 5571.875981,2455.697456 5578.428735,2456.930910 5585.339028,2455.646281 5591.548171,2452.257214 5598.070004,2449.971240 5604.502567,2446.110517 5609.030059,2440.662363 5610.932069,2434.387781 5613.551336,2425.009187 5617.100930,2417.507541 5623.258317,2411.554549 5628.009517,2405.645840 5629.466549,2398.182461 5632.045543,2389.304534 5637.679689,2381.054133 5646.171672,2375.745685 5651.904272,2371.668319 5656.323774,2363.479897 5658.986840,2355.954766 5659.547671,2349.900613 5663.288043,2340.540018 5666.145224,2333.510021 5671.817664,2326.880024 5679.876807,2322.736708 5688.150958,2318.133039 5693.365595,2311.980250 5696.242488,2305.416197 5696.217794,2296.633010 5698.567783,2285.406330 5698.245098,2271.721922 5700.129662,2262.860401 5703.257221,2256.978929 5709.188455,2251.742046 5715.540143,2246.284267 5720.896372,2236.186017 5726.131738,2229.066663 5730.344203,2222.038057 5733.203610,2212.887054 5734.351042,2204.076238 5737.388075,2194.721167 5741.443604,2186.930049 5749.192116,2179.551585 5756.082820,2175.213810 5763.433682,2170.865195 5773.820094,2166.678235 5784.621738,2162.048423 5790.168007,2158.164342 5794.844443,2152.757222 5796.607974,2145.020154 5796.212749,2137.833670 5794.918303,2132.300759 5793.565738,2124.670443 5793.181496,2117.950095 5794.431802,2111.657620 5793.842649,2106.563376 5790.496289,2103.166493 5785.716836,2097.937809 5782.779145,2091.977234 5781.391564,2082.493272 5781.879505,2075.552485 5783.423336,2069.919368 5786.562028,2064.504070 5791.564210,2059.278053 5800.019776,2054.248273 5803.032340,2051.589902 5807.089067,2045.686586 5810.453785,2040.277077 5814.260936,2035.578946 5820.725328,2031.206865 5824.769212,2026.969555 5828.855572,2020.110556 5833.528673,2013.082270 5839.314986,2009.425774 5845.038015,2006.770188 5852.671623,2002.614891 5860.006228,1997.567171 5866.706393,1995.088466 5872.706489,1992.393061 5877.943196,1987.161582 5880.346044,1980.375584 5884.114069,1972.169353 5888.816337,1964.163212 5891.870133,1955.507416 5893.230527,1945.769941 5896.698288,1934.772428 5900.005165,1924.689285 5906.816396,1917.333078 5914.985046,1907.857242 5919.883653,1898.225227"/>