<?xml version="1.0" encoding="UTF-8"?>

<!-- generated on 09/19/18 09:27:52 by Eclipse SUMO duarouter Version 1.0.0
<configuration xmlns:xsi="http://www.w3.org/2001/XMLSchema-instance" xsi:noNamespaceSchemaLocation="http://sumo.dlr.de/xsd/duarouterConfiguration.xsd">

    <input>
        <net-file value="tIntersection.net.xml"/>
        <route-files value="trips.trips.xml"/>
    </input>

    <output>
        <output-file value="tIntersection.rou.xml"/>
        <alternatives-output value="tIntersection.rou.alt.xml"/>
    </output>

    <time>
        <begin value="0"/>
        <end value="3600"/>
    </time>

    <report>
        <no-warnings value="true"/>
        <ignore-errors value="true"/>
        <no-step-log value="true"/>
    </report>

</configuration>
-->

<routes xmlns:xsi="http://www.w3.org/2001/XMLSchema-instance" xsi:noNamespaceSchemaLocation="http://sumo.dlr.de/xsd/routes_file.xsd">
    <vehicle id="3" depart="1.00">
        <route edges="NS_1 EW_2"/>
    </vehicle>
    <vehicle id="4" depart="1.00">
        <route edges="EW_1 SN_2"/>
    </vehicle>
    <vehicle id="5" depart="1.00">
        <route edges="EW_1 SN_2"/>
    </vehicle>
    <vehicle id="6" depart="1.00">
        <route edges="NS_1 EW_2"/>
    </vehicle>
    <vehicle id="7" depart="1.00">
        <route edges="NS_1 EW_2"/>
    </vehicle>
    <vehicle id="9" depart="1.00">
        <route edges="WE_1 WE_2"/>
    </vehicle>
    <vehicle id="12" depart="1.00">
        <route edges="WE_1 SN_2"/>
    </vehicle>
    <vehicle id="13" depart="1.00">
        <route edges="NS_1 EW_2"/>
    </vehicle>
    <vehicle id="14" depart="1.00">
        <route edges="NS_1 WE_2"/>
    </vehicle>
    <vehicle id="15" depart="1.00">
        <route edges="EW_1 EW_2"/>
    </vehicle>
    <vehicle id="16" depart="1.00">
        <route edges="EW_1 SN_2"/>
    </vehicle>
    <vehicle id="17" depart="1.00">
        <route edges="NS_1 WE_2"/>
    </vehicle>
    <vehicle id="18" depart="1.00">
        <route edges="NS_1 WE_2"/>
    </vehicle>
    <vehicle id="20" depart="1.00">
        <route edges="WE_1 SN_2"/>
    </vehicle>
    <vehicle id="21" depart="1.00">
        <route edges="EW_1 EW_2"/>
    </vehicle>
    <vehicle id="22" depart="1.00">
        <route edges="WE_1 WE_2"/>
    </vehicle>
    <vehicle id="24" depart="1.00">
        <route edges="WE_1 WE_2"/>
    </vehicle>
    <vehicle id="25" depart="1.00">
        <route edges="WE_1 WE_2"/>
    </vehicle>
    <vehicle id="27" depart="1.00">
        <route edges="WE_1 SN_2"/>
    </vehicle>
    <vehicle id="29" depart="1.00">
        <route edges="EW_1 SN_2"/>
    </vehicle>
    <vehicle id="30" depart="1.00">
        <route edges="NS_1 EW_2"/>
    </vehicle>
    <vehicle id="31" depart="1.00">
        <route edges="EW_1 EW_2"/>
    </vehicle>
    <vehicle id="32" depart="1.00">
        <route edges="EW_1 EW_2"/>
    </vehicle>
    <vehicle id="33" depart="1.00">
        <route edges="NS_1 EW_2"/>
    </vehicle>
    <vehicle id="35" depart="1.00">
        <route edges="EW_1 EW_2"/>
    </vehicle>
    <vehicle id="38" depart="1.00">
        <route edges="EW_1 EW_2"/>
    </vehicle>
    <vehicle id="39" depart="1.00">
        <route edges="WE_1 WE_2"/>
    </vehicle>
    <vehicle id="40" depart="1.00">
        <route edges="EW_1 SN_2"/>
    </vehicle>
    <vehicle id="41" depart="1.00">
        <route edges="EW_1 EW_2"/>
    </vehicle>
    <vehicle id="44" depart="1.00">
        <route edges="WE_1 WE_2"/>
    </vehicle>
    <vehicle id="46" depart="1.00">
        <route edges="NS_1 WE_2"/>
    </vehicle>
    <vehicle id="48" depart="1.00">
        <route edges="WE_1 SN_2"/>
    </vehicle>
    <vehicle id="49" depart="1.00">
        <route edges="NS_1 WE_2"/>
    </vehicle>
    <vehicle id="50" depart="1.00">
        <route edges="EW_1 SN_2"/>
    </vehicle>
    <vehicle id="51" depart="1.00">
        <route edges="WE_1 WE_2"/>
    </vehicle>
    <vehicle id="52" depart="1.00">
        <route edges="NS_1 EW_2"/>
    </vehicle>
    <vehicle id="53" depart="1.00">
        <route edges="NS_1 EW_2"/>
    </vehicle>
    <vehicle id="54" depart="1.00">
        <route edges="EW_1 SN_2"/>
    </vehicle>
    <vehicle id="55" depart="1.00">
        <route edges="WE_1 WE_2"/>
    </vehicle>
    <vehicle id="57" depart="1.00">
        <route edges="WE_1 SN_2"/>
    </vehicle>
    <vehicle id="58" depart="1.00">
        <route edges="NS_1 EW_2"/>
    </vehicle>
    <vehicle id="60" depart="1.00">
        <route edges="NS_1 WE_2"/>
    </vehicle>
    <vehicle id="61" depart="1.00">
        <route edges="EW_1 SN_2"/>
    </vehicle>
    <vehicle id="63" depart="1.00">
        <route edges="NS_1 EW_2"/>
    </vehicle>
    <vehicle id="64" depart="1.00">
        <route edges="NS_1 WE_2"/>
    </vehicle>
    <vehicle id="65" depart="1.00">
        <route edges="NS_1 WE_2"/>
    </vehicle>
    <vehicle id="67" depart="1.00">
        <route edges="NS_1 WE_2"/>
    </vehicle>
    <vehicle id="68" depart="1.00">
        <route edges="WE_1 WE_2"/>
    </vehicle>
    <vehicle id="70" depart="1.00">
        <route edges="NS_1 EW_2"/>
    </vehicle>
    <vehicle id="71" depart="1.00">
        <route edges="NS_1 EW_2"/>
    </vehicle>
    <vehicle id="72" depart="1.00">
        <route edges="NS_1 WE_2"/>
    </vehicle>
    <vehicle id="73" depart="1.00">
        <route edges="NS_1 EW_2"/>
    </vehicle>
    <vehicle id="76" depart="1.00">
        <route edges="NS_1 WE_2"/>
    </vehicle>
    <vehicle id="77" depart="1.00">
        <route edges="NS_1 WE_2"/>
    </vehicle>
    <vehicle id="78" depart="1.00">
        <route edges="EW_1 EW_2"/>
    </vehicle>
    <vehicle id="79" depart="1.00">
        <route edges="EW_1 SN_2"/>
    </vehicle>
    <vehicle id="83" depart="1.00">
        <route edges="NS_1 WE_2"/>
    </vehicle>
    <vehicle id="85" depart="1.00">
        <route edges="EW_1 SN_2"/>
    </vehicle>
    <vehicle id="87" depart="1.00">
        <route edges="WE_1 WE_2"/>
    </vehicle>
    <vehicle id="90" depart="1.00">
        <route edges="EW_1 SN_2"/>
    </vehicle>
    <vehicle id="91" depart="1.00">
        <route edges="EW_1 EW_2"/>
    </vehicle>
    <vehicle id="95" depart="1.00">
        <route edges="NS_1 EW_2"/>
    </vehicle>
    <vehicle id="96" depart="1.00">
        <route edges="EW_1 SN_2"/>
    </vehicle>
    <vehicle id="97" depart="1.00">
        <route edges="WE_1 WE_2"/>
    </vehicle>
    <vehicle id="98" depart="1.00">
        <route edges="NS_1 WE_2"/>
    </vehicle>
    <vehicle id="99" depart="1.00">
        <route edges="WE_1 WE_2"/>
    </vehicle>
    <vehicle id="100" depart="1.00">
        <route edges="EW_1 EW_2"/>
    </vehicle>
    <vehicle id="106" depart="1.00">
        <route edges="WE_1 WE_2"/>
    </vehicle>
    <vehicle id="107" depart="1.00">
        <route edges="EW_1 SN_2"/>
    </vehicle>
    <vehicle id="108" depart="1.00">
        <route edges="WE_1 WE_2"/>
    </vehicle>
    <vehicle id="109" depart="1.00">
        <route edges="NS_1 WE_2"/>
    </vehicle>
    <vehicle id="110" depart="1.00">
        <route edges="NS_1 EW_2"/>
    </vehicle>
    <vehicle id="111" depart="1.00">
        <route edges="NS_1 WE_2"/>
    </vehicle>
    <vehicle id="112" depart="1.00">
        <route edges="NS_1 WE_2"/>
    </vehicle>
    <vehicle id="113" depart="1.00">
        <route edges="EW_1 SN_2"/>
    </vehicle>
    <vehicle id="114" depart="1.00">
        <route edges="EW_1 EW_2"/>
    </vehicle>
    <vehicle id="115" depart="1.00">
        <route edges="EW_1 EW_2"/>
    </vehicle>
    <vehicle id="117" depart="1.00">
        <route edges="NS_1 EW_2"/>
    </vehicle>
    <vehicle id="118" depart="1.00">
        <route edges="WE_1 WE_2"/>
    </vehicle>
    <vehicle id="121" depart="1.00">
        <route edges="NS_1 EW_2"/>
    </vehicle>
    <vehicle id="122" depart="1.00">
        <route edges="NS_1 WE_2"/>
    </vehicle>
    <vehicle id="128" depart="1.00">
        <route edges="WE_1 WE_2"/>
    </vehicle>
    <vehicle id="129" depart="1.00">
        <route edges="NS_1 EW_2"/>
    </vehicle>
    <vehicle id="131" depart="1.00">
        <route edges="EW_1 EW_2"/>
    </vehicle>
    <vehicle id="133" depart="1.00">
        <route edges="NS_1 EW_2"/>
    </vehicle>
    <vehicle id="135" depart="1.00">
        <route edges="EW_1 EW_2"/>
    </vehicle>
    <vehicle id="137" depart="1.00">
        <route edges="NS_1 EW_2"/>
    </vehicle>
    <vehicle id="138" depart="1.00">
        <route edges="NS_1 EW_2"/>
    </vehicle>
    <vehicle id="139" depart="1.00">
        <route edges="EW_1 SN_2"/>
    </vehicle>
    <vehicle id="140" depart="1.00">
        <route edges="NS_1 WE_2"/>
    </vehicle>
    <vehicle id="141" depart="1.00">
        <route edges="EW_1 EW_2"/>
    </vehicle>
    <vehicle id="146" depart="1.00">
        <route edges="NS_1 WE_2"/>
    </vehicle>
    <vehicle id="147" depart="1.00">
        <route edges="EW_1 SN_2"/>
    </vehicle>
    <vehicle id="148" depart="1.00">
        <route edges="EW_1 SN_2"/>
    </vehicle>
    <vehicle id="149" depart="1.00">
        <route edges="WE_1 SN_2"/>
    </vehicle>
    <vehicle id="150" depart="1.00">
        <route edges="WE_1 SN_2"/>
    </vehicle>
    <vehicle id="151" depart="1.00">
        <route edges="NS_1 WE_2"/>
    </vehicle>
    <vehicle id="153" depart="1.00">
        <route edges="WE_1 WE_2"/>
    </vehicle>
    <vehicle id="155" depart="1.00">
        <route edges="NS_1 WE_2"/>
    </vehicle>
    <vehicle id="156" depart="1.00">
        <route edges="NS_1 WE_2"/>
    </vehicle>
    <vehicle id="157" depart="1.00">
        <route edges="WE_1 WE_2"/>
    </vehicle>
    <vehicle id="160" depart="1.00">
        <route edges="EW_1 SN_2"/>
    </vehicle>
    <vehicle id="163" depart="1.00">
        <route edges="WE_1 WE_2"/>
    </vehicle>
    <vehicle id="166" depart="1.00">
        <route edges="NS_1 EW_2"/>
    </vehicle>
    <vehicle id="168" depart="1.00">
        <route edges="EW_1 SN_2"/>
    </vehicle>
    <vehicle id="170" depart="1.00">
        <route edges="WE_1 SN_2"/>
    </vehicle>
    <vehicle id="171" depart="1.00">
        <route edges="WE_1 WE_2"/>
    </vehicle>
    <vehicle id="172" depart="1.00">
        <route edges="NS_1 WE_2"/>
    </vehicle>
    <vehicle id="174" depart="1.00">
        <route edges="WE_1 SN_2"/>
    </vehicle>
    <vehicle id="176" depart="1.00">
        <route edges="WE_1 SN_2"/>
    </vehicle>
    <vehicle id="177" depart="1.00">
        <route edges="EW_1 SN_2"/>
    </vehicle>
    <vehicle id="178" depart="1.00">
        <route edges="WE_1 SN_2"/>
    </vehicle>
    <vehicle id="179" depart="1.00">
        <route edges="NS_1 EW_2"/>
    </vehicle>
    <vehicle id="183" depart="1.00">
        <route edges="NS_1 WE_2"/>
    </vehicle>
    <vehicle id="184" depart="1.00">
        <route edges="EW_1 SN_2"/>
    </vehicle>
    <vehicle id="185" depart="1.00">
        <route edges="EW_1 SN_2"/>
    </vehicle>
    <vehicle id="186" depart="1.00">
        <route edges="EW_1 EW_2"/>
    </vehicle>
    <vehicle id="188" depart="1.00">
        <route edges="WE_1 SN_2"/>
    </vehicle>
    <vehicle id="190" depart="1.00">
        <route edges="NS_1 EW_2"/>
    </vehicle>
    <vehicle id="192" depart="1.00">
        <route edges="NS_1 EW_2"/>
    </vehicle>
    <vehicle id="193" depart="1.00">
        <route edges="WE_1 SN_2"/>
    </vehicle>
    <vehicle id="196" depart="1.00">
        <route edges="WE_1 SN_2"/>
    </vehicle>
    <vehicle id="197" depart="1.00">
        <route edges="NS_1 WE_2"/>
    </vehicle>
    <vehicle id="198" depart="1.00">
        <route edges="NS_1 WE_2"/>
    </vehicle>
    <vehicle id="199" depart="1.00">
        <route edges="NS_1 EW_2"/>
    </vehicle>
    <vehicle id="200" depart="1.00">
        <route edges="EW_1 EW_2"/>
    </vehicle>
    <vehicle id="201" depart="1.00">
        <route edges="WE_1 SN_2"/>
    </vehicle>
    <vehicle id="202" depart="1.00">
        <route edges="EW_1 EW_2"/>
    </vehicle>
    <vehicle id="204" depart="1.00">
        <route edges="EW_1 SN_2"/>
    </vehicle>
    <vehicle id="205" depart="1.00">
        <route edges="EW_1 SN_2"/>
    </vehicle>
    <vehicle id="206" depart="1.00">
        <route edges="WE_1 SN_2"/>
    </vehicle>
    <vehicle id="208" depart="1.00">
        <route edges="NS_1 EW_2"/>
    </vehicle>
    <vehicle id="209" depart="1.00">
        <route edges="EW_1 EW_2"/>
    </vehicle>
    <vehicle id="210" depart="1.00">
        <route edges="NS_1 WE_2"/>
    </vehicle>
    <vehicle id="211" depart="1.00">
        <route edges="EW_1 EW_2"/>
    </vehicle>
    <vehicle id="214" depart="1.00">
        <route edges="EW_1 EW_2"/>
    </vehicle>
    <vehicle id="215" depart="1.00">
        <route edges="WE_1 WE_2"/>
    </vehicle>
    <vehicle id="216" depart="1.00">
        <route edges="EW_1 EW_2"/>
    </vehicle>
    <vehicle id="217" depart="1.00">
        <route edges="EW_1 SN_2"/>
    </vehicle>
    <vehicle id="220" depart="1.00">
        <route edges="EW_1 EW_2"/>
    </vehicle>
    <vehicle id="221" depart="1.00">
        <route edges="WE_1 WE_2"/>
    </vehicle>
    <vehicle id="222" depart="1.00">
        <route edges="NS_1 WE_2"/>
    </vehicle>
    <vehicle id="223" depart="1.00">
        <route edges="EW_1 SN_2"/>
    </vehicle>
    <vehicle id="224" depart="1.00">
        <route edges="EW_1 SN_2"/>
    </vehicle>
    <vehicle id="226" depart="1.00">
        <route edges="WE_1 WE_2"/>
    </vehicle>
    <vehicle id="228" depart="1.00">
        <route edges="WE_1 WE_2"/>
    </vehicle>
    <vehicle id="229" depart="1.00">
        <route edges="NS_1 EW_2"/>
    </vehicle>
    <vehicle id="230" depart="1.00">
        <route edges="NS_1 EW_2"/>
    </vehicle>
    <vehicle id="231" depart="1.00">
        <route edges="NS_1 EW_2"/>
    </vehicle>
    <vehicle id="232" depart="1.00">
        <route edges="NS_1 WE_2"/>
    </vehicle>
    <vehicle id="234" depart="1.00">
        <route edges="WE_1 WE_2"/>
    </vehicle>
    <vehicle id="237" depart="1.00">
        <route edges="WE_1 SN_2"/>
    </vehicle>
    <vehicle id="238" depart="1.00">
        <route edges="EW_1 SN_2"/>
    </vehicle>
    <vehicle id="239" depart="1.00">
        <route edges="EW_1 EW_2"/>
    </vehicle>
    <vehicle id="240" depart="1.00">
        <route edges="WE_1 SN_2"/>
    </vehicle>
    <vehicle id="241" depart="1.00">
        <route edges="WE_1 SN_2"/>
    </vehicle>
    <vehicle id="242" depart="1.00">
        <route edges="EW_1 SN_2"/>
    </vehicle>
    <vehicle id="243" depart="1.00">
        <route edges="NS_1 WE_2"/>
    </vehicle>
    <vehicle id="245" depart="1.00">
        <route edges="NS_1 EW_2"/>
    </vehicle>
    <vehicle id="246" depart="1.00">
        <route edges="WE_1 SN_2"/>
    </vehicle>
    <vehicle id="247" depart="1.00">
        <route edges="WE_1 SN_2"/>
    </vehicle>
    <vehicle id="248" depart="1.00">
        <route edges="EW_1 EW_2"/>
    </vehicle>
    <vehicle id="249" depart="1.00">
        <route edges="EW_1 EW_2"/>
    </vehicle>
    <vehicle id="250" depart="1.00">
        <route edges="NS_1 EW_2"/>
    </vehicle>
    <vehicle id="251" depart="1.00">
        <route edges="NS_1 EW_2"/>
    </vehicle>
    <vehicle id="252" depart="1.00">
        <route edges="EW_1 EW_2"/>
    </vehicle>
    <vehicle id="256" depart="1.00">
        <route edges="NS_1 WE_2"/>
    </vehicle>
    <vehicle id="257" depart="1.00">
        <route edges="EW_1 SN_2"/>
    </vehicle>
    <vehicle id="258" depart="1.00">
        <route edges="NS_1 WE_2"/>
    </vehicle>
    <vehicle id="260" depart="1.00">
        <route edges="WE_1 SN_2"/>
    </vehicle>
    <vehicle id="261" depart="1.00">
        <route edges="WE_1 SN_2"/>
    </vehicle>
    <vehicle id="263" depart="1.00">
        <route edges="WE_1 SN_2"/>
    </vehicle>
    <vehicle id="264" depart="1.00">
        <route edges="EW_1 EW_2"/>
    </vehicle>
    <vehicle id="267" depart="1.00">
        <route edges="EW_1 EW_2"/>
    </vehicle>
    <vehicle id="268" depart="1.00">
        <route edges="EW_1 EW_2"/>
    </vehicle>
    <vehicle id="270" depart="1.00">
        <route edges="WE_1 WE_2"/>
    </vehicle>
    <vehicle id="273" depart="1.00">
        <route edges="WE_1 SN_2"/>
    </vehicle>
    <vehicle id="275" depart="1.00">
        <route edges="NS_1 EW_2"/>
    </vehicle>
    <vehicle id="276" depart="1.00">
        <route edges="EW_1 EW_2"/>
    </vehicle>
    <vehicle id="277" depart="1.00">
        <route edges="WE_1 WE_2"/>
    </vehicle>
    <vehicle id="278" depart="1.00">
        <route edges="NS_1 WE_2"/>
    </vehicle>
    <vehicle id="279" depart="1.00">
        <route edges="NS_1 WE_2"/>
    </vehicle>
    <vehicle id="281" depart="1.00">
        <route edges="WE_1 WE_2"/>
    </vehicle>
    <vehicle id="282" depart="1.00">
        <route edges="NS_1 EW_2"/>
    </vehicle>
    <vehicle id="283" depart="1.00">
        <route edges="EW_1 SN_2"/>
    </vehicle>
    <vehicle id="285" depart="1.00">
        <route edges="EW_1 EW_2"/>
    </vehicle>
    <vehicle id="286" depart="1.00">
        <route edges="NS_1 EW_2"/>
    </vehicle>
    <vehicle id="287" depart="1.00">
        <route edges="EW_1 EW_2"/>
    </vehicle>
    <vehicle id="288" depart="1.00">
        <route edges="EW_1 SN_2"/>
    </vehicle>
    <vehicle id="289" depart="1.00">
        <route edges="EW_1 SN_2"/>
    </vehicle>
    <vehicle id="290" depart="1.00">
        <route edges="NS_1 EW_2"/>
    </vehicle>
    <vehicle id="291" depart="1.00">
        <route edges="WE_1 SN_2"/>
    </vehicle>
    <vehicle id="292" depart="1.00">
        <route edges="EW_1 EW_2"/>
    </vehicle>
    <vehicle id="293" depart="1.00">
        <route edges="NS_1 EW_2"/>
    </vehicle>
    <vehicle id="295" depart="1.00">
        <route edges="WE_1 WE_2"/>
    </vehicle>
    <vehicle id="296" depart="1.00">
        <route edges="WE_1 WE_2"/>
    </vehicle>
    <vehicle id="297" depart="1.00">
        <route edges="WE_1 SN_2"/>
    </vehicle>
    <vehicle id="299" depart="1.00">
        <route edges="NS_1 WE_2"/>
    </vehicle>
    <vehicle id="300" depart="1.00">
        <route edges="EW_1 SN_2"/>
    </vehicle>
    <vehicle id="301" depart="1.00">
        <route edges="EW_1 SN_2"/>
    </vehicle>
    <vehicle id="302" depart="1.00">
        <route edges="EW_1 SN_2"/>
    </vehicle>
    <vehicle id="303" depart="1.00">
        <route edges="WE_1 SN_2"/>
    </vehicle>
    <vehicle id="304" depart="1.00">
        <route edges="NS_1 EW_2"/>
    </vehicle>
    <vehicle id="305" depart="1.00">
        <route edges="WE_1 WE_2"/>
    </vehicle>
    <vehicle id="306" depart="1.00">
        <route edges="NS_1 EW_2"/>
    </vehicle>
    <vehicle id="307" depart="1.00">
        <route edges="WE_1 SN_2"/>
    </vehicle>
    <vehicle id="308" depart="1.00">
        <route edges="NS_1 WE_2"/>
    </vehicle>
    <vehicle id="309" depart="1.00">
        <route edges="WE_1 SN_2"/>
    </vehicle>
    <vehicle id="310" depart="1.00">
        <route edges="WE_1 SN_2"/>
    </vehicle>
    <vehicle id="312" depart="1.00">
        <route edges="WE_1 WE_2"/>
    </vehicle>
    <vehicle id="316" depart="1.00">
        <route edges="EW_1 SN_2"/>
    </vehicle>
    <vehicle id="318" depart="1.00">
        <route edges="NS_1 EW_2"/>
    </vehicle>
    <vehicle id="319" depart="1.00">
        <route edges="EW_1 EW_2"/>
    </vehicle>
    <vehicle id="320" depart="1.00">
        <route edges="NS_1 EW_2"/>
    </vehicle>
    <vehicle id="322" depart="1.00">
        <route edges="WE_1 WE_2"/>
    </vehicle>
    <vehicle id="324" depart="1.00">
        <route edges="NS_1 EW_2"/>
    </vehicle>
    <vehicle id="325" depart="1.00">
        <route edges="NS_1 EW_2"/>
    </vehicle>
    <vehicle id="326" depart="1.00">
        <route edges="EW_1 EW_2"/>
    </vehicle>
    <vehicle id="327" depart="1.00">
        <route edges="EW_1 EW_2"/>
    </vehicle>
    <vehicle id="328" depart="1.00">
        <route edges="NS_1 EW_2"/>
    </vehicle>
    <vehicle id="330" depart="1.00">
        <route edges="NS_1 EW_2"/>
    </vehicle>
    <vehicle id="331" depart="1.00">
        <route edges="WE_1 SN_2"/>
    </vehicle>
    <vehicle id="332" depart="1.00">
        <route edges="WE_1 SN_2"/>
    </vehicle>
    <vehicle id="333" depart="1.00">
        <route edges="NS_1 WE_2"/>
    </vehicle>
    <vehicle id="334" depart="1.00">
        <route edges="WE_1 SN_2"/>
    </vehicle>
    <vehicle id="336" depart="1.00">
        <route edges="WE_1 SN_2"/>
    </vehicle>
    <vehicle id="338" depart="1.00">
        <route edges="NS_1 EW_2"/>
    </vehicle>
    <vehicle id="339" depart="1.00">
        <route edges="EW_1 EW_2"/>
    </vehicle>
    <vehicle id="341" depart="1.00">
        <route edges="WE_1 WE_2"/>
    </vehicle>
    <vehicle id="342" depart="1.00">
        <route edges="WE_1 SN_2"/>
    </vehicle>
    <vehicle id="343" depart="1.00">
        <route edges="EW_1 SN_2"/>
    </vehicle>
    <vehicle id="344" depart="1.00">
        <route edges="EW_1 EW_2"/>
    </vehicle>
    <vehicle id="346" depart="1.00">
        <route edges="NS_1 WE_2"/>
    </vehicle>
    <vehicle id="348" depart="1.00">
        <route edges="WE_1 SN_2"/>
    </vehicle>
    <vehicle id="350" depart="1.00">
        <route edges="EW_1 SN_2"/>
    </vehicle>
    <vehicle id="351" depart="1.00">
        <route edges="NS_1 EW_2"/>
    </vehicle>
    <vehicle id="352" depart="1.00">
        <route edges="WE_1 WE_2"/>
    </vehicle>
    <vehicle id="353" depart="1.00">
        <route edges="NS_1 EW_2"/>
    </vehicle>
    <vehicle id="354" depart="1.00">
        <route edges="WE_1 SN_2"/>
    </vehicle>
    <vehicle id="355" depart="1.00">
        <route edges="EW_1 EW_2"/>
    </vehicle>
    <vehicle id="356" depart="1.00">
        <route edges="NS_1 WE_2"/>
    </vehicle>
    <vehicle id="357" depart="1.00">
        <route edges="EW_1 EW_2"/>
    </vehicle>
    <vehicle id="358" depart="1.00">
        <route edges="WE_1 WE_2"/>
    </vehicle>
    <vehicle id="359" depart="1.00">
        <route edges="WE_1 WE_2"/>
    </vehicle>
    <vehicle id="361" depart="1.00">
        <route edges="NS_1 EW_2"/>
    </vehicle>
    <vehicle id="362" depart="1.00">
        <route edges="NS_1 WE_2"/>
    </vehicle>
    <vehicle id="363" depart="1.00">
        <route edges="EW_1 SN_2"/>
    </vehicle>
    <vehicle id="364" depart="1.00">
        <route edges="NS_1 EW_2"/>
    </vehicle>
    <vehicle id="367" depart="1.00">
        <route edges="EW_1 SN_2"/>
    </vehicle>
    <vehicle id="368" depart="1.00">
        <route edges="NS_1 EW_2"/>
    </vehicle>
    <vehicle id="369" depart="1.00">
        <route edges="EW_1 SN_2"/>
    </vehicle>
    <vehicle id="370" depart="1.00">
        <route edges="EW_1 EW_2"/>
    </vehicle>
    <vehicle id="372" depart="1.00">
        <route edges="WE_1 WE_2"/>
    </vehicle>
    <vehicle id="373" depart="1.00">
        <route edges="NS_1 EW_2"/>
    </vehicle>
    <vehicle id="374" depart="1.00">
        <route edges="NS_1 WE_2"/>
    </vehicle>
    <vehicle id="376" depart="1.00">
        <route edges="WE_1 SN_2"/>
    </vehicle>
    <vehicle id="377" depart="1.00">
        <route edges="WE_1 SN_2"/>
    </vehicle>
    <vehicle id="381" depart="1.00">
        <route edges="WE_1 WE_2"/>
    </vehicle>
    <vehicle id="384" depart="1.00">
        <route edges="NS_1 WE_2"/>
    </vehicle>
    <vehicle id="385" depart="1.00">
        <route edges="WE_1 SN_2"/>
    </vehicle>
    <vehicle id="386" depart="1.00">
        <route edges="NS_1 EW_2"/>
    </vehicle>
    <vehicle id="388" depart="1.00">
        <route edges="EW_1 EW_2"/>
    </vehicle>
    <vehicle id="389" depart="1.00">
        <route edges="NS_1 WE_2"/>
    </vehicle>
    <vehicle id="390" depart="1.00">
        <route edges="WE_1 WE_2"/>
    </vehicle>
    <vehicle id="391" depart="1.00">
        <route edges="NS_1 WE_2"/>
    </vehicle>
    <vehicle id="392" depart="1.00">
        <route edges="EW_1 SN_2"/>
    </vehicle>
    <vehicle id="393" depart="1.00">
        <route edges="WE_1 WE_2"/>
    </vehicle>
    <vehicle id="394" depart="1.00">
        <route edges="WE_1 SN_2"/>
    </vehicle>
    <vehicle id="395" depart="1.00">
        <route edges="WE_1 WE_2"/>
    </vehicle>
    <vehicle id="397" depart="1.00">
        <route edges="NS_1 EW_2"/>
    </vehicle>
    <vehicle id="398" depart="1.00">
        <route edges="WE_1 WE_2"/>
    </vehicle>
    <vehicle id="399" depart="1.00">
        <route edges="WE_1 SN_2"/>
    </vehicle>
    <vehicle id="400" depart="1.00">
        <route edges="NS_1 EW_2"/>
    </vehicle>
    <vehicle id="401" depart="1.00">
        <route edges="WE_1 SN_2"/>
    </vehicle>
    <vehicle id="403" depart="1.00">
        <route edges="NS_1 WE_2"/>
    </vehicle>
    <vehicle id="404" depart="1.00">
        <route edges="EW_1 EW_2"/>
    </vehicle>
    <vehicle id="405" depart="1.00">
        <route edges="EW_1 EW_2"/>
    </vehicle>
    <vehicle id="407" depart="1.00">
        <route edges="WE_1 SN_2"/>
    </vehicle>
    <vehicle id="410" depart="1.00">
        <route edges="WE_1 WE_2"/>
    </vehicle>
    <vehicle id="412" depart="1.00">
        <route edges="EW_1 EW_2"/>
    </vehicle>
    <vehicle id="413" depart="1.00">
        <route edges="NS_1 EW_2"/>
    </vehicle>
    <vehicle id="414" depart="1.00">
        <route edges="EW_1 SN_2"/>
    </vehicle>
    <vehicle id="418" depart="1.00">
        <route edges="NS_1 WE_2"/>
    </vehicle>
    <vehicle id="419" depart="1.00">
        <route edges="EW_1 SN_2"/>
    </vehicle>
    <vehicle id="420" depart="1.00">
        <route edges="NS_1 EW_2"/>
    </vehicle>
    <vehicle id="422" depart="1.00">
        <route edges="WE_1 SN_2"/>
    </vehicle>
    <vehicle id="423" depart="1.00">
        <route edges="NS_1 WE_2"/>
    </vehicle>
    <vehicle id="425" depart="1.00">
        <route edges="WE_1 SN_2"/>
    </vehicle>
    <vehicle id="426" depart="1.00">
        <route edges="WE_1 SN_2"/>
    </vehicle>
    <vehicle id="427" depart="1.00">
        <route edges="NS_1 EW_2"/>
    </vehicle>
    <vehicle id="428" depart="1.00">
        <route edges="NS_1 EW_2"/>
    </vehicle>
    <vehicle id="429" depart="1.00">
        <route edges="NS_1 WE_2"/>
    </vehicle>
    <vehicle id="430" depart="1.00">
        <route edges="NS_1 EW_2"/>
    </vehicle>
    <vehicle id="431" depart="1.00">
        <route edges="EW_1 SN_2"/>
    </vehicle>
    <vehicle id="432" depart="1.00">
        <route edges="WE_1 SN_2"/>
    </vehicle>
    <vehicle id="433" depart="1.00">
        <route edges="EW_1 SN_2"/>
    </vehicle>
    <vehicle id="434" depart="1.00">
        <route edges="NS_1 EW_2"/>
    </vehicle>
    <vehicle id="435" depart="1.00">
        <route edges="EW_1 EW_2"/>
    </vehicle>
    <vehicle id="438" depart="1.00">
        <route edges="EW_1 SN_2"/>
    </vehicle>
    <vehicle id="441" depart="1.00">
        <route edges="NS_1 EW_2"/>
    </vehicle>
    <vehicle id="442" depart="1.00">
        <route edges="WE_1 SN_2"/>
    </vehicle>
    <vehicle id="444" depart="1.00">
        <route edges="WE_1 SN_2"/>
    </vehicle>
    <vehicle id="445" depart="1.00">
        <route edges="WE_1 WE_2"/>
    </vehicle>
    <vehicle id="446" depart="1.00">
        <route edges="WE_1 SN_2"/>
    </vehicle>
    <vehicle id="448" depart="1.00">
        <route edges="NS_1 EW_2"/>
    </vehicle>
    <vehicle id="449" depart="1.00">
        <route edges="EW_1 EW_2"/>
    </vehicle>
    <vehicle id="451" depart="1.00">
        <route edges="NS_1 EW_2"/>
    </vehicle>
    <vehicle id="452" depart="1.00">
        <route edges="WE_1 SN_2"/>
    </vehicle>
    <vehicle id="453" depart="1.00">
        <route edges="WE_1 SN_2"/>
    </vehicle>
    <vehicle id="454" depart="1.00">
        <route edges="NS_1 WE_2"/>
    </vehicle>
    <vehicle id="455" depart="1.00">
        <route edges="WE_1 WE_2"/>
    </vehicle>
    <vehicle id="456" depart="1.00">
        <route edges="WE_1 SN_2"/>
    </vehicle>
    <vehicle id="458" depart="1.00">
        <route edges="NS_1 WE_2"/>
    </vehicle>
    <vehicle id="459" depart="1.00">
        <route edges="EW_1 EW_2"/>
    </vehicle>
    <vehicle id="462" depart="1.00">
        <route edges="WE_1 SN_2"/>
    </vehicle>
    <vehicle id="463" depart="1.00">
        <route edges="NS_1 EW_2"/>
    </vehicle>
    <vehicle id="464" depart="1.00">
        <route edges="WE_1 SN_2"/>
    </vehicle>
    <vehicle id="466" depart="1.00">
        <route edges="NS_1 EW_2"/>
    </vehicle>
    <vehicle id="467" depart="1.00">
        <route edges="WE_1 WE_2"/>
    </vehicle>
    <vehicle id="468" depart="1.00">
        <route edges="NS_1 WE_2"/>
    </vehicle>
    <vehicle id="469" depart="1.00">
        <route edges="WE_1 WE_2"/>
    </vehicle>
    <vehicle id="470" depart="1.00">
        <route edges="NS_1 WE_2"/>
    </vehicle>
    <vehicle id="471" depart="1.00">
        <route edges="EW_1 SN_2"/>
    </vehicle>
    <vehicle id="473" depart="1.00">
        <route edges="WE_1 WE_2"/>
    </vehicle>
    <vehicle id="474" depart="1.00">
        <route edges="EW_1 SN_2"/>
    </vehicle>
    <vehicle id="475" depart="1.00">
        <route edges="WE_1 SN_2"/>
    </vehicle>
    <vehicle id="476" depart="1.00">
        <route edges="EW_1 SN_2"/>
    </vehicle>
    <vehicle id="477" depart="1.00">
        <route edges="EW_1 SN_2"/>
    </vehicle>
    <vehicle id="478" depart="1.00">
        <route edges="EW_1 SN_2"/>
    </vehicle>
    <vehicle id="479" depart="1.00">
        <route edges="WE_1 SN_2"/>
    </vehicle>
    <vehicle id="480" depart="1.00">
        <route edges="EW_1 EW_2"/>
    </vehicle>
    <vehicle id="481" depart="1.00">
        <route edges="NS_1 EW_2"/>
    </vehicle>
    <vehicle id="482" depart="1.00">
        <route edges="EW_1 EW_2"/>
    </vehicle>
    <vehicle id="484" depart="1.00">
        <route edges="WE_1 SN_2"/>
    </vehicle>
    <vehicle id="487" depart="1.00">
        <route edges="NS_1 WE_2"/>
    </vehicle>