<?xml version="1.0" encoding="UTF-8"?>
<!-- generated on 2018-09-28 09:12:49.321866 by $Id$ via randomTrips.py
  options: -n osm.net.xml <doubleminus>seed 42 <doubleminus>fringe-factor 5 -p 2.598278 -r osm.passenger.rou.xml -o osm.passenger.trips.xml -e 3600 <doubleminus>vehicle-class passenger <doubleminus>vclass passenger <doubleminus>prefix veh <doubleminus>min-distance 300 <doubleminus>trip-attributes departLane="best" <doubleminus>validate
-->
<routes xmlns:xsi="http://www.w3.org/2001/XMLSchema-instance" xsi:noNamespaceSchemaLocation="http://sumo.dlr.de/xsd/routes_file.xsd">
    <vType id="veh_passenger" vClass="passenger">
    </vType>
    <trip id="veh0" depart="0.00" departLane="best" from="5677037#10" to="-219964428#3" type="veh_passenger"/>
    <trip id="veh1" depart="2.60" departLane="best" from="221777109#0" to="221585914#3" type="veh_passenger"/>
    <trip id="veh2" depart="5.20" departLane="best" from="5678442#11" to="5677926#1" type="veh_passenger"/>
    <trip id="veh3" depart="7.79" departLane="best" from="5680703#6" to="-432552975" type="veh_passenger"/>
    <trip id="veh4" depart="10.39" departLane="best" from="350687715#1" to="-219964428#6" type="veh_passenger"/>
    <trip id="veh5" depart="12.99" departLane="best" from="221585914#0" to="46865765#4" type="veh_passenger"/>
    <trip id="veh6" depart="15.59" departLane="best" from="-222246544#1" to="221446578#9" type="veh_passenger"/>
    <trip id="veh7" depart="18.19" departLane="best" from="5677037#2" to="495491356#3" type="veh_passenger"/>
    <trip id="veh8" depart="20.79" departLane="best" from="221585914#10" to="5676884#1" type="veh_passenger"/>
    <trip id="veh9" depart="23.38" departLane="best" from="5679708#10" to="-148285572#10" type="veh_passenger"/>
    <trip id="veh10" depart="25.98" departLane="best" from="5679708#0" to="5678147#2" type="veh_passenger"/>
    <trip id="veh11" depart="28.58" departLane="best" from="227074781#0" to="-587067528" type="veh_passenger"/>
    <trip id="veh12" depart="31.18" departLane="best" from="5681383#4" to="227064551#1" type="veh_passenger"/>
    <trip id="veh13" depart="33.78" departLane="best" from="-432552979#0" to="-432552981#0" type="veh_passenger"/>
    <trip id="veh14" depart="36.38" departLane="best" from="5679875#1" to="5676994#6" type="veh_passenger"/>
    <trip id="veh15" depart="38.97" departLane="best" from="5679708#0" to="5678442#13" type="veh_passenger"/>
    <trip id="veh16" depart="41.57" departLane="best" from="489437292#1" to="587067526#1" type="veh_passenger"/>
    <trip id="veh17" depart="44.17" departLane="best" from="34287042#1" to="497256110#1" type="veh_passenger"/>
    <trip id="veh18" depart="46.77" departLane="best" from="5679708#8" to="5677037#15" type="veh_passenger"/>
    <trip id="veh19" depart="49.37" departLane="best" from="5680159#3" to="5675264" type="veh_passenger"/>
    <trip id="veh20" depart="51.97" departLane="best" from="5678215#7" to="-227074781#0" type="veh_passenger"/>
    <trip id="veh21" depart="54.56" departLane="best" from="221585914#15" to="221777109#9" type="veh_passenger"/>
    <trip id="veh22" depart="57.16" departLane="best" from="-432552966#1" to="221585914#9" type="veh_passenger"/>
    <trip id="veh23" depart="59.76" departLane="best" from="-432552982" to="221777109#2" type="veh_passenger"/>
    <trip id="veh24" depart="62.36" departLane="best" from="5677037#0" to="227074781#6" type="veh_passenger"/>
    <trip id="veh25" depart="64.96" departLane="best" from="227074781#9" to="221585914#15" type="veh_passenger"/>
    <trip id="veh26" depart="67.56" departLane="best" from="221696386#7" to="5681383#12" type="veh_passenger"/>
    <trip id="veh27" depart="70.15" departLane="best" from="5677037#16" to="5676994#9" type="veh_passenger"/>
    <trip id="veh28" depart="72.75" departLane="best" from="219964428#10" to="5678442#12" type="veh_passenger"/>
    <trip id="veh29" depart="75.35" departLane="best" from="219964428#0" to="23113651#2" type="veh_passenger"/>
    <trip id="veh30" depart="77.95" departLane="best" from="587067526#2" to="5677430#0" type="veh_passenger"/>
    <trip id="veh31" depart="80.55" departLane="best" from="495491356#3" to="5678026" type="veh_passenger"/>
    <trip id="veh32" depart="83.14" departLane="best" from="5679790#2" to="5679171#5" type="veh_passenger"/>
    <trip id="veh33" depart="85.74" departLane="best" from="221585914#15" to="-219964428#8" type="veh_passenger"/>
    <trip id="veh34" depart="88.34" departLane="best" from="222246542#0" to="221777109#11" type="veh_passenger"/>
    <trip id="veh35" depart="90.94" departLane="best" from="221446578#9" to="5681383#3" type="veh_passenger"/>
    <trip id="veh36" depart="93.54" departLane="best" from="5680442#5" to="222246542#4" type="veh_passenger"/>
    <trip id="veh37" depart="96.14" departLane="best" from="5677037#6" to="34287042#13" type="veh_passenger"/>
    <trip id="veh38" depart="98.73" departLane="best" from="5680742#3" to="420626018" type="veh_passenger"/>
    <trip id="veh39" depart="101.33" departLane="best" from="221696386#6" to="221696386#10" type="veh_passenger"/>
    <trip id="veh41" depart="106.53" departLane="best" from="34593472#10" to="221585914#19" type="veh_passenger"/>
    <trip id="veh42" depart="109.13" departLane="best" from="587067529#1" to="46865765#7" type="veh_passenger"/>
    <trip id="veh43" depart="111.73" departLane="best" from="-432552978" to="-227074781#1" type="veh_passenger"/>
    <trip id="veh44" depart="114.32" departLane="best" from="-5678026" to="5677037#17" type="veh_passenger"/>
    <trip id="veh45" depart="116.92" departLane="best" from="5679171#4" to="34593472#13" type="veh_passenger"/>
    <trip id="veh46" depart="119.52" departLane="best" from="-227074781#9" to="275355374" type="veh_passenger"/>
    <trip id="veh47" depart="122.12" departLane="best" from="587067529#0" to="489437292#3" type="veh_passenger"/>
    <trip id="veh48" depart="124.72" departLane="best" from="5681568#2" to="5680442#2" type="veh_passenger"/>
    <trip id="veh49" depart="127.32" departLane="best" from="-219964428#3" to="5678359#1" type="veh_passenger"/>
    <trip id="veh50" depart="129.91" departLane="best" from="5678025" to="489437292#9" type="veh_passenger"/>
    <trip id="veh51" depart="132.51" departLane="best" from="221696386#7" to="5677430#0" type="veh_passenger"/>
    <trip id="veh52" depart="135.11" departLane="best" from="-5678026" to="350687715#1" type="veh_passenger"/>
    <trip id="veh53" depart="137.71" departLane="best" from="40879226#6" to="5681568#0" type="veh_passenger"/>
    <trip id="veh54" depart="140.31" departLane="best" from="5680442#5" to="221696386#9" type="veh_passenger"/>
    <trip id="veh56" depart="145.50" departLane="best" from="5680742#15" to="5680442#9" type="veh_passenger"/>
    <trip id="veh57" depart="148.10" departLane="best" from="221777109#6" to="5677037#9" type="veh_passenger"/>
    <trip id="veh58" depart="150.70" departLane="best" from="5676994#0" to="-587067527#1" type="veh_passenger"/>
    <trip id="veh59" depart="153.30" departLane="best" from="5678756#0" to="495491355#0" type="veh_passenger"/>
    <trip id="veh60" depart="155.90" departLane="best" from="5678756#9" to="489437292#4" type="veh_passenger"/>
    <trip id="veh61" depart="158.49" departLane="best" from="-219964428#10" to="222246543#4" type="veh_passenger"/>
    <trip id="veh62" depart="161.09" departLane="best" from="-219964428#9" to="5681383#1" type="veh_passenger"/>
    <trip id="veh63" depart="163.69" departLane="best" from="5680442#7" to="5680159#0" type="veh_passenger"/>
    <trip id="veh64" depart="166.29" departLane="best" from="222246285#0" to="-227074781#2" type="veh_passenger"/>
    <trip id="veh65" depart="168.89" departLane="best" from="5680442#6" to="5681383#6" type="veh_passenger"/>
    <trip id="veh66" depart="171.49" departLane="best" from="-432552970#0" to="432552982" type="veh_passenger"/>
    <trip id="veh67" depart="174.08" departLane="best" from="-23113651#2" to="5678756#3" type="veh_passenger"/>
    <trip id="veh68" depart="176.68" departLane="best" from="5678756#0" to="-5679875#0" type="veh_passenger"/>
    <trip id="veh69" depart="179.28" departLane="best" from="432552966#2" to="497256110#1" type="veh_passenger"/>
    <trip id="veh70" depart="181.88" departLane="best" from="37434658#0" to="221585914#17" type="veh_passenger"/>
    <trip id="veh71" depart="184.48" departLane="best" from="489437292#2" to="5678442#13" type="veh_passenger"/>
    <trip id="veh72" depart="187.08" departLane="best" from="221446578#2" to="222246542#2" type="veh_passenger"/>
    <trip id="veh73" depart="189.67" departLane="best" from="587067528" to="5677430#11" type="veh_passenger"/>
    <trip id="veh74" depart="192.27" departLane="best" from="37434658#6" to="489437292#1" type="veh_passenger"/>
    <trip id="veh75" depart="194.87" departLane="best" from="-5679171#12" to="221585914#4" type="veh_passenger"/>
    <trip id="veh76" depart="197.47" departLane="best" from="227074779#0" to="5676884#0" type="veh_passenger"/>
    <trip id="veh77" depart="200.07" departLane="best" from="221585914#16" to="221585914#19" type="veh_passenger"/>
    <trip id="veh78" depart="202.67" departLane="best" from="-23113651#2" to="5677037#4" type="veh_passenger"/>
    <trip id="veh79" depart="205.26" departLane="best" from="221585914#15" to="5680992#0" type="veh_passenger"/>
    <trip id="veh80" depart="207.86" departLane="best" from="5680159#2" to="-23113651#0" type="veh_passenger"/>
    <trip id="veh81" depart="210.46" departLane="best" from="221585914#4" to="5677818#1" type="veh_passenger"/>
    <trip id="veh83" depart="215.66" departLane="best" from="5680992#2" to="51980526#3" type="veh_passenger"/>
    <trip id="veh84" depart="218.26" departLane="best" from="432552966#0" to="5679708#10" type="veh_passenger"/>
    <trip id="veh85" depart="220.85" departLane="best" from="5679708#0" to="221446578#3" type="veh_passenger"/>
    <trip id="veh86" depart="223.45" departLane="best" from="37434658#0" to="432552966#3" type="veh_passenger"/>
    <trip id="veh87" depart="226.05" departLane="best" from="5678442#0" to="5677926#1" type="veh_passenger"/>
    <trip id="veh88" depart="228.65" departLane="best" from="587067526#0" to="-432552982" type="veh_passenger"/>
    <trip id="veh89" depart="231.25" departLane="best" from="34593472#2" to="227074779#1" type="veh_passenger"/>
    <trip id="veh90" depart="233.85" departLane="best" from="5680159#3" to="221696386#10" type="veh_passenger"/>
    <trip id="veh91" depart="236.44" departLane="best" from="219964428#9" to="37434658#4" type="veh_passenger"/>
    <trip id="veh92" depart="239.04" departLane="best" from="350687715#1" to="221777109#2" type="veh_passenger"/>
    <trip id="veh93" depart="241.64" departLane="best" from="221696380#0" to="5680992#7" type="veh_passenger"/>
    <trip id="veh94" depart="244.24" departLane="best" from="40879226#0" to="5680442#3" type="veh_passenger"/>
    <trip id="veh95" depart="246.84" departLane="best" from="495491355#0" to="-227074781#11" type="veh_passenger"/>
    <trip id="veh96" depart="249.43" departLane="best" from="587355756" to="5680159#3" type="veh_passenger"/>
    <trip id="veh97" depart="252.03" departLane="best" from="5681568#1" to="5681207" type="veh_passenger"/>
    <trip id="veh98" depart="254.63" departLane="best" from="5679892#0" to="107391104" type="veh_passenger"/>
    <trip id="veh99" depart="257.23" departLane="best" from="432552978" to="221585914#18" type="veh_passenger"/>
    <trip id="veh100" depart="259.83" departLane="best" from="34287042#10" to="587355756" type="veh_passenger"/>
    <trip id="veh101" depart="262.43" departLane="best" from="221696386#6" to="5679708#1" type="veh_passenger"/>
    <trip id="veh103" depart="267.62" departLane="best" from="5681383#4" to="618977202" type="veh_passenger"/>
    <trip id="veh104" depart="270.22" departLane="best" from="495491356#2" to="5678359#1" type="veh_passenger"/>
    <trip id="veh105" depart="272.82" departLane="best" from="-587067529#1" to="222246539" type="veh_passenger"/>
    <trip id="veh106" depart="275.42" departLane="best" from="5681568#0" to="5675264" type="veh_passenger"/>
    <trip id="veh107" depart="278.02" departLane="best" from="489437292#4" to="5678442#20" type="veh_passenger"/>
    <trip id="veh108" depart="280.61" departLane="best" from="-227074781#5" to="5676234#3" type="veh_passenger"/>
    <trip id="veh110" depart="285.81" departLane="best" from="148285572#0" to="586174692" type="veh_passenger"/>
    <trip id="veh111" depart="288.41" departLane="best" from="-432552966#2" to="219964428#9" type="veh_passenger"/>
    <trip id="veh112" depart="291.01" departLane="best" from="5676437" to="5677926#1" type="veh_passenger"/>
    <trip id="veh113" depart="293.61" departLane="best" from="221585914#2" to="-5679171#4" type="veh_passenger"/>
    <trip id="veh114" depart="296.20" departLane="best" from="5676437" to="5677037#15" type="veh_passenger"/>
    <trip id="veh115" depart="298.80" departLane="best" from="350687715#0" to="5676234#3" type="veh_passenger"/>
    <trip id="veh116" depart="301.40" departLane="best" from="46865765#3" to="5681383#12" type="veh_passenger"/>
    <trip id="veh117" depart="304.00" departLane="best" from="221446578#5" to="5678359#0" type="veh_passenger"/>
    <trip id="veh118" depart="306.60" departLane="best" from="221585914#5" to="34287042#13" type="veh_passenger"/>
    <trip id="veh119" depart="309.20" departLane="best" from="5677430#6" to="222246539" type="veh_passenger"/>
    <trip id="veh120" depart="311.79" departLane="best" from="222246542#0" to="5678442#5" type="veh_passenger"/>
    <trip id="veh121" depart="314.39" departLane="best" from="-23113651#2" to="40879226#6" type="veh_passenger"/>
    <trip id="veh122" depart="316.99" departLane="best" from="587067529#1" to="618977202" type="veh_passenger"/>
    <trip id="veh123" depart="319.59" departLane="best" from="-23113651#2" to="221585914#18" type="veh_passenger"/>
    <trip id="veh124" depart="322.19" departLane="best" from="221696386#6" to="5681383#11" type="veh_passenger"/>
    <trip id="veh125" depart="324.78" departLane="best" from="5680442#8" to="5680742#11" type="veh_passenger"/>
    <trip id="veh126" depart="327.38" departLane="best" from="227074781#8" to="-587067529#1" type="veh_passenger"/>
    <trip id="veh127" depart="329.98" departLane="best" from="5679786" to="5678215#2" type="veh_passenger"/>
    <trip id="veh128" depart="332.58" departLane="best" from="5676994#10" to="618977201" type="veh_passenger"/>
    <trip id="veh129" depart="335.18" departLane="best" from="5677037#5" to="-219964428#10" type="veh_passenger"/>
    <trip id="veh130" depart="337.78" departLane="best" from="5679708#15" to="222246539" type="veh_passenger"/>
    <trip id="veh131" depart="340.37" departLane="best" from="5677430#1" to="5681383#12" type="veh_passenger"/>
    <trip id="veh132" depart="342.97" departLane="best" from="-5680972#1" to="-5679171#3" type="veh_passenger"/>
    <trip id="veh133" depart="345.57" departLane="best" from="221777109#0" to="5676994#6" type="veh_passenger"/>
    <trip id="veh134" depart="348.17" departLane="best" from="5678419" to="221585914#11" type="veh_passenger"/>
    <trip id="veh135" depart="350.77" departLane="best" from="5677037#0" to="221696386#9" type="veh_passenger"/>
    <trip id="veh136" depart="353.37" departLane="best" from="432552979#1" to="5680992#0" type="veh_passenger"/>
    <trip id="veh137" depart="355.96" departLane="best" from="5679875#0" to="-432552979#1" type="veh_passenger"/>
    <trip id="veh138" depart="358.56" departLane="best" from="37434658#0" to="221777109#17" type="veh_passenger"/>
    <trip id="veh139" depart="361.16" departLane="best" from="-219964428#12" to="5679171#10" type="veh_passenger"/>
    <trip id="veh140" depart="363.76" departLane="best" from="5677037#0" to="221696386#8" type="veh_passenger"/>
    <trip id="veh141" depart="366.36" departLane="best" from="5678442#15" to="497256110#1" type="veh_passenger"/>
    <trip id="veh142" depart="368.96" departLane="best" from="37434658#0" to="-219964428#11" type="veh_passenger"/>
    <trip id="veh143" depart="371.55" departLane="best" from="-350687715#0" to="5680742#14" type="veh_passenger"/>
    <trip id="veh144" depart="374.15" departLane="best" from="5680742#10" to="497256110#0" type="veh_passenger"/>
    <trip id="veh145" depart="376.75" departLane="best" from="5679786" to="5676234#2" type="veh_passenger"/>
    <trip id="veh146" depart="379.35" departLane="best" from="5679171#7" to="5680442#2" type="veh_passenger"/>
    <trip id="veh147" depart="381.95" departLane="best" from="5680742#0" to="221585914#16" type="veh_passenger"/>
    <trip id="veh148" depart="384.55" departLane="best" from="221696380#0" to="-5678419" type="veh_passenger"/>
    <trip id="veh149" depart="387.14" departLane="best" from="5679171#0" to="5680742#14" type="veh_passenger"/>
    <trip id="veh150" depart="389.74" departLane="best" from="34593472#4" to="5677037#16" type="veh_passenger"/>
    <trip id="veh151" depart="392.34" departLane="best" from="-587067529#1" to="5681383#1" type="veh_passenger"/>
    <trip id="veh152" depart="394.94" departLane="best" from="5680159#5" to="587067527#0" type="veh_passenger"/>
    <trip id="veh153" depart="397.54" departLane="best" from="5679708#11" to="5680742#13" type="veh_passenger"/>
    <trip id="veh154" depart="400.13" departLane="best" from="-222246544#1" to="5678442#17" type="veh_passenger"/>
    <trip id="veh155" depart="402.73" departLane="best" from="222246544#0" to="5681383#10" type="veh_passenger"/>
    <trip id="veh156" depart="405.33" departLane="best" from="5679708#0" to="5680442#5" type="veh_passenger"/>
    <trip id="veh157" depart="407.93" departLane="best" from="5679708#11" to="221777109#10" type="veh_passenger"/>
    <trip id="veh158" depart="410.53" departLane="best" from="5680442#2" to="5680442#11" type="veh_passenger"/>
    <trip id="veh159" depart="413.13" departLane="best" from="221585914#11" to="5679892#1" type="veh_passenger"/>
    <trip id="veh160" depart="415.72" departLane="best" from="420875709" to="222246540#0" type="veh_passenger"/>
    <trip id="veh161" depart="418.32" departLane="best" from="-222246544#0" to="221446578#5" type="veh_passenger"/>
    <trip id="veh163" depart="423.52" departLane="best" from="5681517" to="221777109#2" type="veh_passenger"/>
    <trip id="veh164" depart="426.12" departLane="best" from="587067526#0" to="489437292#8" type="veh_passenger"/>
    <trip id="veh165" depart="428.72" departLane="best" from="5680992#4" to="-5679171#3" type="veh_passenger"/>
    <trip id="veh166" depart="431.31" departLane="best" from="5681568#1" to="219964428#4" type="veh_passenger"/>
    <trip id="veh167" depart="433.91" departLane="best" from="5681383#7" to="221777109#1" type="veh_passenger"/>
    <trip id="veh168" depart="436.51" departLane="best" from="-5675264" to="350687715#1" type="veh_passenger"/>
    <trip id="veh169" depart="439.11" departLane="best" from="5678442#0" to="222246542#3" type="veh_passenger"/>
    <trip id="veh170" depart="441.71" departLane="best" from="5676994#0" to="46865765#8" type="veh_passenger"/>
    <trip id="veh171" depart="444.31" departLane="best" from="34287042#3" to="5675264" type="veh_passenger"/>
    <trip id="veh172" depart="446.90" departLane="best" from="221696381#2" to="5678215#5" type="veh_passenger"/>
    <trip id="veh173" depart="449.50" departLane="best" from="-219964428#11" to="5680992#9" type="veh_passenger"/>
    <trip id="veh174" depart="452.10" departLane="best" from="489437292#10" to="5678359#1" type="veh_passenger"/>
    <trip id="veh175" depart="454.70" departLane="best" from="5678442#15" to="5677818#1" type="veh_passenger"/>
    <trip id="veh176" depart="457.30" departLane="best" from="227074781#5" to="-23113651#0" type="veh_passenger"/>
    <trip id="veh177" depart="459.90" departLane="best" from="5677430#10" to="227064551#1" type="veh_passenger"/>
    <trip id="veh178" depart="462.49" departLane="best" from="222246540#2" to="5680159#7" type="veh_passenger"/>
    <trip id="veh179" depart="465.09" departLane="best" from="5678419" to="222246539" type="veh_passenger"/>
    <trip id="veh180" depart="467.69" departLane="best" from="222246285#2" to="34593472#0" type="veh_passenger"/>
    <trip id="veh181" depart="470.29" departLane="best" from="34593472#2" to="222246285#2" type="veh_passenger"/>
    <trip id="veh182" depart="472.89" departLane="best" from="-5679171#8" to="34593472#13" type="veh_passenger"/>
    <trip id="veh183" depart="475.48" departLane="best" from="5680992#5" to="5677926#1" type="veh_passenger"/>
    <trip id="veh184" depart="478.08" departLane="best" from="5680742#1" to="5677037#13" type="veh_passenger"/>
    <trip id="veh185" depart="480.68" departLane="best" from="221777109#8" to="497256110#1" type="veh_passenger"/>
    <trip id="veh186" depart="483.28" departLane="best" from="-219964428#10" to="221777109#8" type="veh_passenger"/>
    <trip id="veh187" depart="485.88" departLane="best" from="37434658#0" to="5675264" type="veh_passenger"/>
    <trip id="veh188" depart="488.48" departLane="best" from="5677037#5" to="432552966#2" type="veh_passenger"/>
    <trip id="veh189" depart="491.07" departLane="best" from="37434658#8" to="221585914#18" type="veh_passenger"/>
    <trip id="veh191" depart="496.27" departLane="best" from="5679171#7" to="219964428#12" type="veh_passenger"/>
    <trip id="veh192" depart="498.87" departLane="best" from="-432552970#0" to="489437292#0" type="veh_passenger"/>
    <trip id="veh193" depart="501.47" departLane="best" from="5679708#16" to="5678442#5" type="veh_passenger"/>
    <trip id="veh194" depart="504.07" departLane="best" from="5677430#6" to="221585914#4" type="veh_passenger"/>
    <trip id="veh195" depart="506.66" departLane="best" from="221446578#1" to="-219964428#2" type="veh_passenger"/>
    <trip id="veh196" depart="509.26" departLane="best" from="221585914#9" to="432552978" type="veh_passenger"/>
    <trip id="veh197" depart="511.86" departLane="best" from="5679892#1" to="-350687715#0" type="veh_passenger"/>
    <trip id="veh198" depart="514.46" departLane="best" from="350687715#0" to="5677037#3" type="veh_passenger"/>
    <trip id="veh199" depart="517.06" departLane="best" from="221446578#0" to="5678147#2" type="veh_passenger"/>
    <trip id="veh200" depart="519.66" departLane="best" from="432552981#1" to="221696386#0" type="veh_passenger"/>
    <trip id="veh201" depart="522.25" departLane="best" from="5677037#6" to="-148285572#10" type="veh_passenger"/>
    <trip id="veh202" depart="524.85" departLane="best" from="5678442#3" to="5679171#10" type="veh_passenger"/>
    <trip id="veh203" depart="527.45" departLane="best" from="-5675264" to="34593472#3" type="veh_passenger"/>
    <trip id="veh204" depart="530.05" departLane="best" from="219964428#13" to="5681568#2" type="veh_passenger"/>
    <trip id="veh205" depart="532.65" departLane="best" from="46865765#10" to="-227074781#11" type="veh_passenger"/>
    <trip id="veh206" depart="535.25" departLane="best" from="420875709" to="5679708#6" type="veh_passenger"/>
    <trip id="veh207" depart="537.84" departLane="best" from="5677430#3" to="618977201" type="veh_passenger"/>
    <trip id="veh208" depart="540.44" departLane="best" from="5676437" to="5681383#8" type="veh_passenger"/>
    <trip id="veh209" depart="543.04" departLane="best" from="5680703#5" to="5677037#11" type="veh_passenger"/>
    <trip id="veh210" depart="545.64" departLane="best" from="5678419" to="46865765#3" type="veh_passenger"/>
    <trip id="veh211" depart="548.24" departLane="best" from="5679708#9" to="497256110#1" type="veh_passenger"/>
    <trip id="veh212" depart="550.83" departLane="best" from="5680742#0" to="5678442#20" type="veh_passenger"/>
    <trip id="veh213" depart="553.43" departLane="best" from="432552966#1" to="221696386#6" type="veh_passenger"/>
    <trip id="veh214" depart="556.03" departLane="best" from="221696379" to="5677037#8" type="veh_passenger"/>
    <trip id="veh215" depart="558.63" departLane="best" from="5678756#0" to="489437292#11" type="veh_passenger"/>
    <trip id="veh216" depart="561.23" departLane="best" from="5676994#7" to="221777109#15" type="veh_passenger"/>
    <trip id="veh217" depart="563.83" departLane="best" from="-432552966#0" to="221777109#7" type="veh_passenger"/>
    <trip id="veh218" depart="566.42" departLane="best" from="221777109#0" to="222246543#1" type="veh_passenger"/>
    <trip id="veh219" depart="569.02" departLane="best" from="489437292#3" to="-586174692" type="veh_passenger"/>
    <trip id="veh220" depart="571.62" departLane="best" from="221585914#17" to="5678147#2" type="veh_passenger"/>
    <trip id="veh221" depart="574.22" departLane="best" from="5678215#8" to="-227074781#6" type="veh_passenger"/>
    <trip id="veh222" depart="576.82" departLane="best" from="34593472#5" to="495491356#1" type="veh_passenger"/>
    <trip id="veh223" depart="579.42" departLane="best" from="350687715#0" to="221585914#13" type="veh_passenger"/>
    <trip id="veh224" depart="582.01" departLane="best" from="350687715#0" to="5680992#0" type="veh_passenger"/>
    <trip id="veh225" depart="584.61" departLane="best" from="5676234#0" to="5678147#2" type="veh_passenger"/>
    <trip id="veh226" depart="587.21" departLane="best" from="34287042#11" to="-148285572#10" type="veh_passenger"/>
    <trip id="veh227" depart="589.81" departLane="best" from="227074781#11" to="5678442#6" type="veh_passenger"/>
    <trip id="veh228" depart="592.41" departLane="best" from="5679892#3" to="5681517" type="veh_passenger"/>
    <trip id="veh229" depart="595.01" departLane="best" from="350687715#0" to="5678442#20" type="veh_passenger"/>
    <trip id="veh230" depart="597.60" departLane="best" from="489437292#7" to="5676994#5" type="veh_passenger"/>
    <trip id="veh231" depart="600.20" departLane="best" from="221585914#10" to="221585914#19" type="veh_passenger"/>
    <trip id="veh232" depart="602.80" departLane="best" from="37434658#4" to="-219964428#6" type="veh_passenger"/>
    <trip id="veh233" depart="605.40" departLane="best" from="227064551#0" to="5677926#1" type="veh_passenger"/>
    <trip id="veh234" depart="608.00" departLane="best" from="34593472#3" to="107391104" type="veh_passenger"/>
    <trip id="veh235" depart="610.60" departLane="best" from="421116795#0" to="-5679875#0" type="veh_passenger"/>
    <trip id="veh236" depart="613.19" departLane="best" from="5676994#4" to="-219964428#4" type="veh_passenger"/>
    <trip id="veh237" depart="615.79" departLane="best" from="34287042#9" to="515885147#1" type="veh_passenger"/>
    <trip id="veh238" depart="618.39" departLane="best" from="-222246544#1" to="5677430#10" type="veh_passenger"/>
    <trip id="veh239" depart="620.99" departLane="best" from="-5680972#1" to="432552966#0" type="veh_passenger"/>
    <trip id="veh240" depart="623.59" departLane="best" from="-227074781#18" to="23113651#2" type="veh_passenger"/>
    <trip id="veh241" depart="626.18" departLane="best" from="221585914#0" to="222246544#1" type="veh_passenger"/>
    <trip id="veh242" depart="628.78" departLane="best" from="5678756#0" to="23113651#2" type="veh_passenger"/>
    <trip id="veh243" depart="631.38" departLane="best" from="221696381#0" to="-432552968" type="veh_passenger"/>
    <trip id="veh244" depart="633.98" departLane="best" from="-219964428#9" to="495491355#0" type="veh_passenger"/>
    <trip id="veh245" depart="636.58" departLane="best" from="587355756" to="227074781#15" type="veh_passenger"/>
    <trip id="veh246" depart="639.18" departLane="best" from="5677037#2" to="5679171#8" type="veh_passenger"/>
    <trip id="veh247" depart="641.77" departLane="best" from="5677037#3" to="5678442#7" type="veh_passenger"/>
    <trip id="veh248" depart="644.37" departLane="best" from="5681383#0" to="221446578#9" type="veh_passenger"/>
    <trip id="veh249" depart="646.97" departLane="best" from="-219964428#9" to="-587067527#1" type="veh_passenger"/>
    <trip id="veh250" depart="649.57" departLane="best" from="-5679171#7" to="5677818#1" type="veh_passenger"/>
    <trip id="veh252" depart="654.77" departLane="best" from="5678215#3" to="5678756#7" type="veh_passenger"/>
    <trip id="veh253" depart="657.36" departLane="best" from="219964428#0" to="5676994#8" type="veh_passenger"/>
    <trip id="veh254" depart="659.96" departLane="best" from="5678442#19" to="-5679171#3" type="veh_passenger"/>
    <trip id="veh255" depart="662.56" departLane="best" from="5679708#16" to="586174692" type="veh_passenger"/>
    <trip id="veh256" depart="665.16" departLane="best" from="-5675264" to="-219964428#3" type="veh_passenger"/>
    <trip id="veh257" depart="667.76" departLane="best" from="222246540#0" to="5677926#1" type="veh_passenger"/>
    <trip id="veh258" depart="670.36" departLane="best" from="5681383#4" to="34287042#2" type="veh_passenger"/>
    <trip id="veh259" depart="672.95" departLane="best" from="5678387#0" to="-432552966#0" type="veh_passenger"/>
    <trip id="veh260" depart="675.55" departLane="best" from="5678215#0" to="5677037#17" type="veh_passenger"/>
    <trip id="veh261" depart="678.15" departLane="best" from="-432552982" to="5679171#11" type="veh_passenger"/>
    <trip id="veh262" depart="680.75" departLane="best" from="-5679171#12" to="587067529#1" type="veh_passenger"/>
    <trip id="veh263" depart="683.35" departLane="best" from="5679171#0" to="227074781#13" type="veh_passenger"/>
    <trip id="veh264" depart="685.95" departLane="best" from="37434658#0" to="23113651#0" type="veh_passenger"/>
    <trip id="veh266" depart="691.14" departLane="best" from="5679892#1" to="5679892#5" type="veh_passenger"/>
    <trip id="veh267" depart="693.74" departLane="best" from="-5675264" to="586174692" type="veh_passenger"/>
    <trip id="veh268" depart="696.34" departLane="best" from="5677037#0" to="5679892#6" type="veh_passenger"/>