<?xml version="1.0" encoding="UTF-8"?>

<!-- generated on 09/21/18 09:38:25 by Eclipse SUMO duarouter Version 1.0.0
<configuration xmlns:xsi="http://www.w3.org/2001/XMLSchema-instance" xsi:noNamespaceSchemaLocation="http://sumo.dlr.de/xsd/duarouterConfiguration.xsd">

    <input>
        <net-file value="littleriver.net.xml"/>
        <route-files value="trips.trips.xml"/>
    </input>

    <output>
        <output-file value="littleriver.rou.xml"/>
        <alternatives-output value="littleriver.rou.alt.xml"/>
    </output>

    <time>
        <begin value="0"/>
        <end value="3600"/>
    </time>

    <report>
        <no-warnings value="true"/>
        <ignore-errors value="true"/>
        <no-step-log value="true"/>
    </report>

</configuration>
-->

<routes xmlns:xsi="http://www.w3.org/2001/XMLSchema-instance" xsi:noNamespaceSchemaLocation="http://sumo.dlr.de/xsd/routes_file.xsd">
    <vehicle id="3" depart="1.00">
        <route edges="468510415#1 319330145#1"/>
    </vehicle>
    <vehicle id="4" depart="1.00">
        <route edges="468510415#1 468510417#1"/>
    </vehicle>
    <vehicle id="9" depart="1.00">
        <route edges="590842388#1 468510415#1 468510417#1"/>
    </vehicle>
    <vehicle id="10" depart="1.00">
        <route edges="590842388#1"/>
    </vehicle>
    <vehicle id="11" depart="1.00">
        <route edges="468510427#0 -468510415#1 -468510415#0 -590842388#0"/>
    </vehicle>
    <vehicle id="12" depart="1.00">
        <route edges="468510415#1 468510417#1"/>
    </vehicle>
    <vehicle id="15" depart="1.00">
        <route edges="590842388#0 590842388#1 468510415#1"/>
    </vehicle>
    <vehicle id="17" depart="1.00">
        <route edges="590842388#1"/>
    </vehicle>
    <vehicle id="18" depart="1.00">
        <route edges="-468510415#0"/>
    </vehicle>
    <vehicle id="22" depart="1.00">
        <route edges="-468510415#1 -468510415#0 -590842388#0"/>
    </vehicle>
    <vehicle id="23" depart="1.00">
        <route edges="468510427#0 -468510415#1 -468510415#0 -590842388#0"/>
    </vehicle>
    <vehicle id="24" depart="1.00">
        <route edges="-468510415#1 -468510415#0 -590842388#0"/>
    </vehicle>
    <vehicle id="29" depart="1.00">
        <route edges="-468510415#1"/>
    </vehicle>
    <vehicle id="31" depart="1.00">
        <route edges="590842388#1 468510415#1 468510417#1"/>
    </vehicle>
    <vehicle id="33" depart="1.00">
        <route edges="468510415#1"/>
    </vehicle>
    <vehicle id="34" depart="1.00">
        <route edges="590842388#1"/>
    </vehicle>
    <vehicle id="39" depart="1.00">
        <route edges="468510427#0 -468510415#1 -468510415#0"/>
    </vehicle>
    <vehicle id="40" depart="1.00">
        <route edges="-468510417#1 -468510415#1"/>
    </vehicle>
    <vehicle id="42" depart="1.00">
        <route edges="468510415#1 319330145#1"/>
    </vehicle>
    <vehicle id="43" depart="1.00">
        <route edges="590842388#0 590842388#1 468510415#1 319330145#1"/>
    </vehicle>
    <vehicle id="46" depart="1.00">
        <route edges="-468510417#1 -468510415#1"/>
    </vehicle>
    <vehicle id="47" depart="1.00">
        <route edges="-468510417#1 -gneE0"/>
    </vehicle>
    <vehicle id="48" depart="1.00">
        <route edges="-468510415#1"/>
    </vehicle>
    <vehicle id="51" depart="1.00">
        <route edges="-468510415#0"/>
    </vehicle>
    <vehicle id="54" depart="1.00">
        <route edges="468510415#1 -gneE0"/>
    </vehicle>
    <vehicle id="56" depart="1.00">
        <route edges="-468510415#0 -590842388#0"/>
    </vehicle>
    <vehicle id="58" depart="1.00">
        <route edges="468510415#1 468510417#1"/>
    </vehicle>
    <vehicle id="60" depart="1.00">
        <route edges="468510415#1 -gneE0"/>
    </vehicle>
    <vehicle id="61" depart="1.00">
        <route edges="gneE0 -468510415#1 -468510415#0 -590842388#0"/>
    </vehicle>
    <vehicle id="62" depart="1.00">
        <route edges="590842388#1 468510415#1 -gneE0"/>
    </vehicle>
    <vehicle id="63" depart="1.00">
        <route edges="468510415#1 319330145#1"/>
    </vehicle>
    <vehicle id="65" depart="1.00">
        <route edges="gneE0 468510417#1"/>
    </vehicle>
    <vehicle id="66" depart="1.00">
        <route edges="gneE0 -468510415#1"/>
    </vehicle>
    <vehicle id="69" depart="1.00">
        <route edges="-468510417#1 -468510415#1 -468510415#0"/>
    </vehicle>
    <vehicle id="70" depart="1.00">
        <route edges="-468510417#1 -468510415#1 -468510415#0 -590842388#0"/>
    </vehicle>
    <vehicle id="72" depart="1.00">
        <route edges="gneE0 319330145#1"/>
    </vehicle>
    <vehicle id="73" depart="1.00">
        <route edges="590842388#0 590842388#1 468510415#1"/>
    </vehicle>
    <vehicle id="74" depart="1.00">
        <route edges="590842388#1"/>
    </vehicle>
    <vehicle id="75" depart="1.00">
        <route edges="gneE0 -468510415#1 -468510415#0"/>
    </vehicle>
    <vehicle id="76" depart="1.00">
        <route edges="468510427#0 -gneE0"/>
    </vehicle>
    <vehicle id="77" depart="1.00">
        <route edges="590842388#1 468510415#1 468510417#1"/>
    </vehicle>
    <vehicle id="78" depart="1.00">
        <route edges="590842388#0 590842388#1 468510415#1 468510417#1"/>
    </vehicle>
    <vehicle id="80" depart="1.00">
        <route edges="468510427#0 -468510415#1"/>
    </vehicle>
    <vehicle id="81" depart="1.00">
        <route edges="590842388#1 468510415#1 319330145#1"/>
    </vehicle>
    <vehicle id="83" depart="1.00">
        <route edges="468510415#1"/>
    </vehicle>
    <vehicle id="84" depart="1.00">
        <route edges="-468510415#1 -468510415#0"/>
    </vehicle>
    <vehicle id="88" depart="1.00">
        <route edges="468510427#0 -468510415#1 -468510415#0"/>
    </vehicle>
    <vehicle id="91" depart="1.00">
        <route edges="-468510415#0"/>
    </vehicle>
    <vehicle id="97" depart="1.00">
        <route edges="590842388#1 468510415#1 -gneE0"/>
    </vehicle>
    <vehicle id="102" depart="1.00">
        <route edges="gneE0 319330145#1"/>
    </vehicle>
    <vehicle id="106" depart="1.00">
        <route edges="590842388#0 590842388#1 468510415#1 -gneE0"/>
    </vehicle>
    <vehicle id="107" depart="1.00">
        <route edges="468510427#0 -gneE0"/>
    </vehicle>
    <vehicle id="109" depart="1.00">
        <route edges="gneE0 468510417#1"/>
    </vehicle>
    <vehicle id="110" depart="1.00">
        <route edges="-468510415#1"/>
    </vehicle>
    <vehicle id="111" depart="1.00">
        <route edges="gneE0 468510417#1"/>
    </vehicle>
    <vehicle id="112" depart="1.00">
        <route edges="590842388#1"/>
    </vehicle>
    <vehicle id="114" depart="1.00">
        <route edges="590842388#0 590842388#1 468510415#1 319330145#1"/>
    </vehicle>
    <vehicle id="116" depart="1.00">
        <route edges="590842388#1 468510415#1 -gneE0"/>
    </vehicle>
    <vehicle id="119" depart="1.00">
        <route edges="590842388#0 590842388#1 468510415#1 468510417#1"/>
    </vehicle>
    <vehicle id="120" depart="1.00">
        <route edges="468510415#1 468510417#1"/>
    </vehicle>
    <vehicle id="123" depart="1.00">
        <route edges="-468510415#0 -590842388#0"/>
    </vehicle>
    <vehicle id="125" depart="1.00">
        <route edges="-468510417#1 -gneE0"/>
    </vehicle>
    <vehicle id="126" depart="1.00">
        <route edges="gneE0 -468510415#1"/>
    </vehicle>
    <vehicle id="128" depart="1.00">
        <route edges="468510415#1 319330145#1"/>
    </vehicle>
    <vehicle id="130" depart="1.00">
        <route edges="468510415#1 -gneE0"/>
    </vehicle>
    <vehicle id="131" depart="1.00">
        <route edges="468510415#1 -gneE0"/>
    </vehicle>
    <vehicle id="132" depart="1.00">
        <route edges="590842388#0 590842388#1 468510415#1 468510417#1"/>
    </vehicle>
    <vehicle id="133" depart="1.00">
        <route edges="590842388#1 468510415#1 319330145#1"/>
    </vehicle>
    <vehicle id="135" depart="1.00">
        <route edges="gneE0 -468510415#1 -468510415#0"/>
    </vehicle>
    <vehicle id="140" depart="1.00">
        <route edges="468510427#0 -gneE0"/>
    </vehicle>
    <vehicle id="143" depart="1.00">
        <route edges="590842388#1 468510415#1 468510417#1"/>
    </vehicle>
    <vehicle id="144" depart="1.00">
        <route edges="468510415#1"/>
    </vehicle>
    <vehicle id="146" depart="1.00">
        <route edges="590842388#1 468510415#1"/>
    </vehicle>
    <vehicle id="148" depart="1.00">
        <route edges="590842388#1"/>
    </vehicle>
    <vehicle id="151" depart="1.00">
        <route edges="gneE0 -468510415#1 -468510415#0"/>
    </vehicle>
    <vehicle id="152" depart="1.00">
        <route edges="468510415#1 -gneE0"/>
    </vehicle>
    <vehicle id="153" depart="1.00">
        <route edges="-468510415#1 -468510415#0 -590842388#0"/>
    </vehicle>
    <vehicle id="154" depart="1.00">
        <route edges="468510415#1"/>
    </vehicle>
    <vehicle id="160" depart="1.00">
        <route edges="-468510415#0"/>
    </vehicle>
    <vehicle id="161" depart="1.00">
        <route edges="590842388#0 590842388#1 468510415#1"/>
    </vehicle>
    <vehicle id="162" depart="1.00">
        <route edges="-468510417#1 319330145#1"/>
    </vehicle>
    <vehicle id="164" depart="1.00">
        <route edges="-468510417#1 319330145#1"/>
    </vehicle>
    <vehicle id="166" depart="1.00">
        <route edges="468510415#1 -gneE0"/>
    </vehicle>
    <vehicle id="167" depart="1.00">
        <route edges="590842388#1 468510415#1"/>
    </vehicle>
    <vehicle id="168" depart="1.00">
        <route edges="468510427#0 -468510415#1"/>
    </vehicle>
    <vehicle id="170" depart="1.00">
        <route edges="590842388#0 590842388#1 468510415#1 319330145#1"/>
    </vehicle>
    <vehicle id="172" depart="1.00">
        <route edges="468510427#0 -468510415#1"/>
    </vehicle>
    <vehicle id="173" depart="1.00">
        <route edges="-468510417#1 -468510415#1"/>
    </vehicle>
    <vehicle id="174" depart="1.00">
        <route edges="-468510415#0 -590842388#0"/>
    </vehicle>
    <vehicle id="175" depart="1.00">
        <route edges="-468510417#1 319330145#1"/>
    </vehicle>
    <vehicle id="176" depart="1.00">
        <route edges="590842388#1 468510415#1 -gneE0"/>
    </vehicle>
    <vehicle id="177" depart="1.00">
        <route edges="590842388#1 468510415#1 468510417#1"/>
    </vehicle>
    <vehicle id="178" depart="1.00">
        <route edges="468510427#0 -468510415#1"/>
    </vehicle>
    <vehicle id="179" depart="1.00">
        <route edges="590842388#1 468510415#1 319330145#1"/>
    </vehicle>
    <vehicle id="181" depart="1.00">
        <route edges="gneE0 -468510415#1 -468510415#0"/>
    </vehicle>
    <vehicle id="182" depart="1.00">
        <route edges="468510415#1 468510417#1"/>
    </vehicle>
    <vehicle id="183" depart="1.00">
        <route edges="gneE0 -468510415#1 -468510415#0 -590842388#0"/>
    </vehicle>
    <vehicle id="184" depart="1.00">
        <route edges="-468510415#1"/>
    </vehicle>
    <vehicle id="187" depart="1.00">
        <route edges="gneE0 -468510415#1"/>
    </vehicle>
    <vehicle id="188" depart="1.00">
        <route edges="-468510417#1 -gneE0"/>
    </vehicle>
    <vehicle id="190" depart="1.00">
        <route edges="590842388#0 590842388#1"/>
    </vehicle>
    <vehicle id="191" depart="1.00">
        <route edges="590842388#1 468510415#1 319330145#1"/>
    </vehicle>
    <vehicle id="192" depart="1.00">
        <route edges="590842388#1 468510415#1 319330145#1"/>
    </vehicle>
    <vehicle id="193" depart="1.00">
        <route edges="gneE0 468510417#1"/>
    </vehicle>
    <vehicle id="195" depart="1.00">
        <route edges="468510427#0 468510417#1"/>
    </vehicle>
    <vehicle id="196" depart="1.00">
        <route edges="468510427#0 -468510415#1"/>
    </vehicle>
    <vehicle id="197" depart="1.00">
        <route edges="-468510415#1 -468510415#0 -590842388#0"/>
    </vehicle>
    <vehicle id="199" depart="1.00">
        <route edges="468510415#1"/>
    </vehicle>
    <vehicle id="202" depart="1.00">
        <route edges="gneE0 -468510415#1 -468510415#0 -590842388#0"/>
    </vehicle>
    <vehicle id="204" depart="1.00">
        <route edges="-468510415#0 -590842388#0"/>
    </vehicle>
    <vehicle id="210" depart="1.00">
        <route edges="590842388#0 590842388#1 468510415#1 319330145#1"/>
    </vehicle>
    <vehicle id="211" depart="1.00">
        <route edges="gneE0 -468510415#1 -468510415#0"/>
    </vehicle>
    <vehicle id="212" depart="1.00">
        <route edges="gneE0 -468510415#1 -468510415#0 -590842388#0"/>
    </vehicle>
    <vehicle id="213" depart="1.00">
        <route edges="468510427#0 -468510415#1"/>
    </vehicle>
    <vehicle id="222" depart="1.00">
        <route edges="gneE0 319330145#1"/>
    </vehicle>
    <vehicle id="223" depart="1.00">
        <route edges="-468510415#0 -590842388#0"/>
    </vehicle>
    <vehicle id="224" depart="1.00">
        <route edges="590842388#0 590842388#1 468510415#1 468510417#1"/>
    </vehicle>
    <vehicle id="227" depart="1.00">
        <route edges="-468510415#0 -590842388#0"/>
    </vehicle>
    <vehicle id="228" depart="1.00">
        <route edges="-468510417#1 -gneE0"/>
    </vehicle>
    <vehicle id="231" depart="1.00">
        <route edges="-468510415#1"/>
    </vehicle>
    <vehicle id="238" depart="1.00">
        <route edges="gneE0 -468510415#1 -468510415#0"/>
    </vehicle>
    <vehicle id="239" depart="1.00">
        <route edges="468510415#1 319330145#1"/>
    </vehicle>
    <vehicle id="242" depart="1.00">
        <route edges="468510415#1 468510417#1"/>
    </vehicle>
    <vehicle id="243" depart="1.00">
        <route edges="-468510417#1 -468510415#1"/>
    </vehicle>
    <vehicle id="244" depart="1.00">
        <route edges="590842388#1 468510415#1 468510417#1"/>
    </vehicle>
    <vehicle id="245" depart="1.00">
        <route edges="468510415#1"/>
    </vehicle>
    <vehicle id="249" depart="1.00">
        <route edges="590842388#0 590842388#1"/>
    </vehicle>
    <vehicle id="251" depart="1.00">
        <route edges="468510427#0 -468510415#1"/>
    </vehicle>
    <vehicle id="252" depart="1.00">
        <route edges="gneE0 468510417#1"/>
    </vehicle>
    <vehicle id="253" depart="1.00">
        <route edges="-468510415#1 -468510415#0"/>
    </vehicle>
    <vehicle id="258" depart="1.00">
        <route edges="gneE0 -468510415#1 -468510415#0"/>
    </vehicle>
    <vehicle id="259" depart="1.00">
        <route edges="-468510417#1 -gneE0"/>
    </vehicle>
    <vehicle id="260" depart="1.00">
        <route edges="468510415#1 -gneE0"/>
    </vehicle>
    <vehicle id="261" depart="1.00">
        <route edges="gneE0 468510417#1"/>
    </vehicle>
    <vehicle id="262" depart="1.00">
        <route edges="590842388#0 590842388#1"/>
    </vehicle>
    <vehicle id="264" depart="1.00">
        <route edges="590842388#0 590842388#1 468510415#1 319330145#1"/>
    </vehicle>
    <vehicle id="266" depart="1.00">
        <route edges="468510427#0 -468510415#1 -468510415#0"/>
    </vehicle>
    <vehicle id="268" depart="1.00">
        <route edges="-468510417#1 -468510415#1"/>
    </vehicle>
    <vehicle id="269" depart="1.00">
        <route edges="468510427#0 -468510415#1 -468510415#0"/>
    </vehicle>
    <vehicle id="270" depart="1.00">
        <route edges="-468510415#1 -468510415#0 -590842388#0"/>
    </vehicle>
    <vehicle id="274" depart="1.00">
        <route edges="-468510417#1 -468510415#1 -468510415#0"/>
    </vehicle>
    <vehicle id="277" depart="1.00">
        <route edges="-468510415#1 -468510415#0"/>
    </vehicle>
    <vehicle id="280" depart="1.00">
        <route edges="gneE0 -468510415#1 -468510415#0 -590842388#0"/>
    </vehicle>
    <vehicle id="282" depart="1.00">
        <route edges="468510415#1 468510417#1"/>
    </vehicle>
    <vehicle id="287" depart="1.00">
        <route edges="468510415#1"/>
    </vehicle>
    <vehicle id="288" depart="1.00">
        <route edges="590842388#0 590842388#1 468510415#1 319330145#1"/>
    </vehicle>
    <vehicle id="289" depart="1.00">
        <route edges="-468510415#1 -468510415#0 -590842388#0"/>
    </vehicle>
    <vehicle id="292" depart="1.00">
        <route edges="468510415#1"/>
    </vehicle>
    <vehicle id="295" depart="1.00">
        <route edges="-468510417#1 -gneE0"/>
    </vehicle>
    <vehicle id="296" depart="1.00">
        <route edges="-468510415#1"/>
    </vehicle>
    <vehicle id="297" depart="1.00">
        <route edges="590842388#0 590842388#1 468510415#1 -gneE0"/>
    </vehicle>
    <vehicle id="299" depart="1.00">
        <route edges="468510415#1 -gneE0"/>
    </vehicle>
    <vehicle id="300" depart="1.00">
        <route edges="590842388#1 468510415#1 319330145#1"/>
    </vehicle>
    <vehicle id="301" depart="1.00">
        <route edges="468510427#0 468510417#1"/>
    </vehicle>
    <vehicle id="307" depart="1.00">
        <route edges="-468510417#1 -468510415#1 -468510415#0"/>
    </vehicle>
    <vehicle id="308" depart="1.00">
        <route edges="468510427#0 -468510415#1 -468510415#0"/>
    </vehicle>
    <vehicle id="309" depart="1.00">
        <route edges="gneE0 -468510415#1 -468510415#0 -590842388#0"/>
    </vehicle>
    <vehicle id="310" depart="1.00">
        <route edges="468510427#0 -468510415#1 -468510415#0"/>
    </vehicle>
    <vehicle id="312" depart="1.00">
        <route edges="590842388#0 590842388#1 468510415#1 319330145#1"/>
    </vehicle>
    <vehicle id="314" depart="1.00">
        <route edges="-468510415#1"/>
    </vehicle>
    <vehicle id="317" depart="1.00">
        <route edges="590842388#0 590842388#1"/>
    </vehicle>
    <vehicle id="318" depart="1.00">
        <route edges="590842388#0 590842388#1 468510415#1 468510417#1"/>
    </vehicle>
    <vehicle id="320" depart="1.00">
        <route edges="-468510415#1"/>
    </vehicle>
    <vehicle id="322" depart="1.00">
        <route edges="-468510417#1 -468510415#1 -468510415#0 -590842388#0"/>
    </vehicle>
    <vehicle id="324" depart="1.00">
        <route edges="-468510417#1 -gneE0"/>
    </vehicle>
    <vehicle id="325" depart="1.00">
        <route edges="468510427#0 -gneE0"/>
    </vehicle>
    <vehicle id="331" depart="1.00">
        <route edges="-468510415#1"/>
    </vehicle>
    <vehicle id="333" depart="1.00">
        <route edges="468510415#1 319330145#1"/>
    </vehicle>
    <vehicle id="334" depart="1.00">
        <route edges="590842388#1"/>
    </vehicle>
    <vehicle id="336" depart="1.00">
        <route edges="-468510415#1 -468510415#0"/>
    </vehicle>
    <vehicle id="340" depart="1.00">
        <route edges="gneE0 -468510415#1"/>
    </vehicle>
    <vehicle id="341" depart="1.00">
        <route edges="590842388#0 590842388#1 468510415#1 468510417#1"/>
    </vehicle>
    <vehicle id="344" depart="1.00">
        <route edges="-468510417#1 -gneE0"/>
    </vehicle>
    <vehicle id="345" depart="1.00">
        <route edges="gneE0 468510417#1"/>
    </vehicle>
    <vehicle id="346" depart="1.00">
        <route edges="468510415#1 319330145#1"/>
    </vehicle>
    <vehicle id="349" depart="1.00">
        <route edges="468510427#0 -468510415#1 -468510415#0"/>
    </vehicle>
    <vehicle id="350" depart="1.00">
        <route edges="-468510415#1"/>
    </vehicle>
    <vehicle id="352" depart="1.00">
        <route edges="590842388#0 590842388#1 468510415#1 -gneE0"/>
    </vehicle>
    <vehicle id="356" depart="1.00">
        <route edges="gneE0 468510417#1"/>
    </vehicle>
    <vehicle id="360" depart="1.00">
        <route edges="468510427#0 468510417#1"/>
    </vehicle>
    <vehicle id="361" depart="1.00">
        <route edges="gneE0 -468510415#1 -468510415#0"/>
    </vehicle>
    <vehicle id="364" depart="1.00">
        <route edges="468510415#1 319330145#1"/>
    </vehicle>
    <vehicle id="365" depart="1.00">
        <route edges="468510427#0 -468510415#1 -468510415#0 -590842388#0"/>
    </vehicle>
    <vehicle id="366" depart="1.00">
        <route edges="590842388#1 468510415#1 468510417#1"/>
    </vehicle>
    <vehicle id="367" depart="1.00">
        <route edges="468510427#0 -gneE0"/>
    </vehicle>
    <vehicle id="368" depart="1.00">
        <route edges="-468510417#1 -468510415#1 -468510415#0"/>
    </vehicle>
    <vehicle id="371" depart="1.00">
        <route edges="590842388#1"/>
    </vehicle>
    <vehicle id="376" depart="1.00">
        <route edges="590842388#1 468510415#1 468510417#1"/>
    </vehicle>
    <vehicle id="379" depart="1.00">
        <route edges="590842388#1 468510415#1 319330145#1"/>
    </vehicle>
    <vehicle id="380" depart="1.00">
        <route edges="gneE0 -468510415#1"/>
    </vehicle>
    <vehicle id="381" depart="1.00">
        <route edges="-468510417#1 -468510415#1"/>
    </vehicle>
    <vehicle id="384" depart="1.00">
        <route edges="gneE0 -468510415#1 -468510415#0 -590842388#0"/>
    </vehicle>
    <vehicle id="386" depart="1.00">
        <route edges="590842388#1"/>
    </vehicle>
    <vehicle id="388" depart="1.00">
        <route edges="-468510415#1 -468510415#0 -590842388#0"/>
    </vehicle>
    <vehicle id="391" depart="1.00">
        <route edges="590842388#1 468510415#1 -gneE0"/>
    </vehicle>
    <vehicle id="394" depart="1.00">
        <route edges="-468510415#1 -468510415#0"/>
    </vehicle>
    <vehicle id="395" depart="1.00">
        <route edges="590842388#1"/>
    </vehicle>
    <vehicle id="396" depart="1.00">
        <route edges="468510427#0 468510417#1"/>
    </vehicle>
    <vehicle id="397" depart="1.00">
        <route edges="gneE0 319330145#1"/>
    </vehicle>
    <vehicle id="398" depart="1.00">
        <route edges="-468510417#1 -468510415#1 -468510415#0 -590842388#0"/>
    </vehicle>
    <vehicle id="399" depart="1.00">
        <route edges="468510427#0 -468510415#1 -468510415#0 -590842388#0"/>
    </vehicle>
    <vehicle id="401" depart="1.00">
        <route edges="590842388#0 590842388#1 468510415#1 -gneE0"/>
    </vehicle>
    <vehicle id="405" depart="1.00">
        <route edges="-468510415#1"/>
    </vehicle>
    <vehicle id="407" depart="1.00">
        <route edges="gneE0 468510417#1"/>
    </vehicle>
    <vehicle id="410" depart="1.00">
        <route edges="-468510417#1 -468510415#1 -468510415#0"/>
    </vehicle>
    <vehicle id="417" depart="1.00">
        <route edges="468510427#0 -468510415#1 -468510415#0"/>
    </vehicle>
    <vehicle id="418" depart="1.00">
        <route edges="590842388#0 590842388#1 468510415#1 468510417#1"/>
    </vehicle>
    <vehicle id="420" depart="1.00">
        <route edges="-468510415#1"/>
    </vehicle>
    <vehicle id="421" depart="1.00">
        <route edges="590842388#1 468510415#1 319330145#1"/>
    </vehicle>
    <vehicle id="423" depart="1.00">
        <route edges="590842388#1 468510415#1 -gneE0"/>
    </vehicle>
    <vehicle id="425" depart="1.00">
        <route edges="590842388#1 468510415#1 -gneE0"/>
    </vehicle>
    <vehicle id="427" depart="1.00">
        <route edges="590842388#1 468510415#1 -gneE0"/>
    </vehicle>
    <vehicle id="428" depart="1.00">
        <route edges="468510427#0 -468510415#1 -468510415#0"/>
    </vehicle>
    <vehicle id="431" depart="1.00">
        <route edges="-468510417#1 -468510415#1 -468510415#0 -590842388#0"/>
    </vehicle>
    <vehicle id="434" depart="1.00">
        <route edges="590842388#0 590842388#1 468510415#1 468510417#1"/>
    </vehicle>
    <vehicle id="436" depart="1.00">
        <route edges="590842388#1 468510415#1 -gneE0"/>
    </vehicle>
    <vehicle id="438" depart="1.00">
        <route edges="gneE0 468510417#1"/>
    </vehicle>
    <vehicle id="440" depart="1.00">
        <route edges="590842388#1 468510415#1"/>
    </vehicle>
    <vehicle id="443" depart="1.00">
        <route edges="468510415#1 468510417#1"/>
    </vehicle>
    <vehicle id="444" depart="1.00">
        <route edges="468510427#0 -gneE0"/>
    </vehicle>
    <vehicle id="446" depart="1.00">
        <route edges="590842388#1"/>
    </vehicle>
    <vehicle id="447" depart="1.00">
        <route edges="gneE0 319330145#1"/>
    </vehicle>
    <vehicle id="449" depart="1.00">
        <route edges="gneE0 -468510415#1 -468510415#0 -590842388#0"/>
    </vehicle>
    <vehicle id="451" depart="1.00">
        <route edges="468510427#0 -468510415#1"/>
    </vehicle>
    <vehicle id="454" depart="1.00">
        <route edges="590842388#0 590842388#1 468510415#1"/>
    </vehicle>
    <vehicle id="455" depart="1.00">
        <route edges="468510427#0 -468510415#1 -468510415#0"/>
    </vehicle>
    <vehicle id="457" depart="1.00">
        <route edges="gneE0 468510417#1"/>
    </vehicle>
    <vehicle id="461" depart="1.00">
        <route edges="468510427#0 468510417#1"/>
    </vehicle>
    <vehicle id="464" depart="1.00">
        <route edges="590842388#0 590842388#1 468510415#1"/>
    </vehicle>
    <vehicle id="465" depart="1.00">
        <route edges="gneE0 -468510415#1 -468510415#0 -590842388#0"/>
    </vehicle>
    <vehicle id="466" depart="1.00">
        <route edges="468510427#0 -468510415#1"/>
    </vehicle>
    <vehicle id="467" depart="1.00">
        <route edges="468510427#0 -468510415#1 -468510415#0"/>
    </vehicle>
    <vehicle id="468" depart="1.00">
        <route edges="-468510417#1 -468510415#1 -468510415#0"/>
    </vehicle>
    <vehicle id="469" depart="1.00">
        <route edges="-468510415#0 -590842388#0"/>
    </vehicle>
    <vehicle id="470" depart="1.00">
        <route edges="-468510415#1 -468510415#0"/>
    </vehicle>
    <vehicle id="471" depart="1.00">
        <route edges="590842388#0 590842388#1"/>
    </vehicle>
    <vehicle id="473" depart="1.00">
        <route edges="590842388#1"/>
    </vehicle>
    <vehicle id="478" depart="1.00">
        <route edges="-468510415#1 -468510415#0 -590842388#0"/>
    </vehicle>
    <vehicle id="480" depart="1.00">
        <route edges="-468510417#1 319330145#1"/>
    </vehicle>
    <vehicle id="485" depart="1.00">
        <route edges="gneE0 -468510415#1 -468510415#0 -590842388#0"/>
    </vehicle>
    <vehicle id="488" depart="1.00">
        <route edges="-468510417#1 -468510415#1 -468510415#0 -590842388#0"/>
    </vehicle>
    <vehicle id="491" depart="1.00">
        <route edges="468510427#0 -468510415#1 -468510415#0"/>
    </vehicle>
    <vehicle id="496" depart="1.00">
        <route edges="590842388#1 468510415#1 319330145#1"/>
    </vehicle>
    <vehicle id="497" depart="1.00">
        <route edges="-468510415#0 -590842388#0"/>
    </vehicle>
    <vehicle id="500" depart="1.00">
        <route edges="468510415#1 319330145#1"/>
    </vehicle>
    <vehicle id="501" depart="1.00">
        <route edges="468510427#0 -468510415#1 -468510415#0 -590842388#0"/>
    </vehicle>
    <vehicle id="504" depart="1.00">
        <route edges="590842388#0 590842388#1 468510415#1 -gneE0"/>
    </vehicle>
    <vehicle id="505" depart="1.00">
        <route edges="-468510417#1 -468510415#1 -468510415#0"/>
    </vehicle>
    <vehicle id="507" depart="1.00">
        <route edges="468510415#1 -gneE0"/>
    </vehicle>
    <vehicle id="510" depart="1.00">
        <route edges="468510427#0 -gneE0"/>
    </vehicle>
    <vehicle id="511" depart="1.00">
        <route edges="468510427#0 -gneE0"/>
    </vehicle>
    <vehicle id="514" depart="1.00">
        <route edges="-468510417#1 -468510415#1"/>
    </vehicle>
    <vehicle id="517" depart="1.00">
        <route edges="468510427#0 -468510415#1"/>
    </vehicle>
    <vehicle id="519" depart="1.00">
        <route edges="468510415#1 468510417#1"/>
    </vehicle>
    <vehicle id="521" depart="1.00">
        <route edges="590842388#0 590842388#1 468510415#1 319330145#1"/>
    </vehicle>
    <vehicle id="522" depart="1.00">
        <route edges="-468510417#1 -468510415#1 -468510415#0 -590842388#0"/>
    </vehicle>
    <vehicle id="524" depart="1.00">
        <route edges="468510415#1 468510417#1"/>
    </vehicle>
    <vehicle id="525" depart="1.00">
        <route edges="gneE0 -468510415#1"/>
    </vehicle>
    <vehicle id="526" depart="1.00">
        <route edges="468510415#1 319330145#1"/>
    </vehicle>
    <vehicle id="527" depart="1.00">
        <route edges="468510415#1 -gneE0"/>
    </vehicle>
    <vehicle id="528" depart="1.00">
        <route edges="-468510417#1 -468510415#1 -468510415#0 -590842388#0"/>
    </vehicle>
    <vehicle id="537" depart="1.00">
        <route edges="468510415#1"/>
    </vehicle>
    <vehicle id="539" depart="1.00">
        <route edges="468510415#1"/>
    </vehicle>
    <vehicle id="542" depart="1.00">
        <route edges="-468510417#1 -468510415#1"/>
    </vehicle>
    <vehicle id="543" depart="1.00">
        <route edges="590842388#1 468510415#1 468510417#1"/>
    </vehicle>
    <vehicle id="546" depart="1.00">
        <route edges="-468510415#1 -468510415#0"/>
    </vehicle>
    <vehicle id="551" depart="1.00">
        <route edges="590842388#0 590842388#1 468510415#1 -gneE0"/>
    </vehicle>
    <vehicle id="553" depart="1.00">
        <route edges="468510415#1 -gneE0"/>
    </vehicle>
    <vehicle id="554" depart="1.00">
        <route edges="-468510415#0 -590842388#0"/>
    </vehicle>
    <vehicle id="556" depart="1.00">
        <route edges="gneE0 468510417#1"/>
    </vehicle>
    <vehicle id="557" depart="1.00">
        <route edges="468510427#0 -468510415#1"/>
    </vehicle>
    <vehicle id="559" depart="1.00">
        <route edges="590842388#1 468510415#1 319330145#1"/>
    </vehicle>
    <vehicle id="560" depart="1.00">
        <route edges="590842388#1"/>
    </vehicle>
    <vehicle id="562" depart="1.00">
        <route edges="gneE0 468510417#1"/>
    </vehicle>
    <vehicle id="564" depart="1.00">
        <route edges="468510415#1 468510417#1"/>
    </vehicle>
    <vehicle id="567" depart="1.00">
        <route edges="gneE0 468510417#1"/>
    </vehicle>
    <vehicle id="569" depart="1.00">