<?xml version="1.0" encoding="UTF-8"?>
<routes>
  <vType id="GenericCar" length="5.0" minGap="2.5" maxSpeed="50.0" accel="3.0" decel="6.0" sigma="0.5" /> 

  <route id="east_west" edges="EW_1 EW_2"/>
  <route id="west_east" edges="WE_1 WE_2"/>
  <route id="north_south" edges="NS_1 NS_2"/>
  <route id="south_north" edges="SN_1 SN_2"/>    <vehicle id="ns_0" type="GenericCar" route="north_south" depart="9" />
    <vehicle id="ns_1" type="GenericCar" route="north_south" depart="16" />
    <vehicle id="sn_2" type="GenericCar" route="south_north" depart="19" />
    <vehicle id="we_3" type="GenericCar" route="west_east" depart="32" />
    <vehicle id="we_4" type="GenericCar" route="west_east" depart="35" />
    <vehicle id="ew_5" type="GenericCar" route="east_west" depart="35" />
    <vehicle id="sn_6" type="GenericCar" route="south_north" depart="38" />
    <vehicle id="we_7" type="GenericCar" route="west_east" depart="39" />
    <vehicle id="ns_8" type="GenericCar" route="north_south" depart="44" />
    <vehicle id="sn_9" type="GenericCar" route="south_north" depart="46" />
    <vehicle id="ew_10" type="GenericCar" route="east_west" depart="51" />
    <vehicle id="ew_11" type="GenericCar" route="east_west" depart="55" />
    <vehicle id="sn_12" type="GenericCar" route="south_north" depart="59" />
    <vehicle id="ew_13" type="GenericCar" route="east_west" depart="60" />
    <vehicle id="ew_14" type="GenericCar" route="east_west" depart="64" />
    <vehicle id="we_15" type="GenericCar" route="west_east" depart="65" />
    <vehicle id="ns_16" type="GenericCar" route="north_south" depart="69" />
    <vehicle id="ew_17" type="GenericCar" route="east_west" depart="70" />
    <vehicle id="ns_18" type="GenericCar" route="north_south" depart="72" />
    <vehicle id="ns_19" type="GenericCar" route="north_south" depart="75" />
    <vehicle id="sn_20" type="GenericCar" route="south_north" depart="80" />
    <vehicle id="we_21" type="GenericCar" route="west_east" depart="84" />
    <vehicle id="we_22" type="GenericCar" route="west_east" depart="94" />
    <vehicle id="we_23" type="GenericCar" route="west_east" depart="97" />
    <vehicle id="sn_24" type="GenericCar" route="south_north" depart="104" />
    <vehicle id="we_25" type="GenericCar" route="west_east" depart="111" />
    <vehicle id="ns_26" type="GenericCar" route="north_south" depart="115" />
    <vehicle id="we_27" type="GenericCar" route="west_east" depart="120" />
    <vehicle id="we_28" type="GenericCar" route="west_east" depart="121" />
    <vehicle id="ew_29" type="GenericCar" route="east_west" depart="121" />
    <vehicle id="ew_30" type="GenericCar" route="east_west" depart="131" />
    <vehicle id="ns_31" type="GenericCar" route="north_south" depart="132" />
    <vehicle id="sn_32" type="GenericCar" route="south_north" depart="135" />
    <vehicle id="sn_33" type="GenericCar" route="south_north" depart="141" />
    <vehicle id="we_34" type="GenericCar" route="west_east" depart="142" />
    <vehicle id="ew_35" type="GenericCar" route="east_west" depart="142" />
    <vehicle id="ns_36" type="GenericCar" route="north_south" depart="143" />
    <vehicle id="we_37" type="GenericCar" route="west_east" depart="146" />
    <vehicle id="ns_38" type="GenericCar" route="north_south" depart="146" />
    <vehicle id="ew_39" type="GenericCar" route="east_west" depart="149" />
    <vehicle id="we_40" type="GenericCar" route="west_east" depart="150" />
    <vehicle id="we_41" type="GenericCar" route="west_east" depart="151" />
    <vehicle id="ew_42" type="GenericCar" route="east_west" depart="151" />
    <vehicle id="ew_43" type="GenericCar" route="east_west" depart="157" />
    <vehicle id="we_44" type="GenericCar" route="west_east" depart="161" />
    <vehicle id="ns_45" type="GenericCar" route="north_south" depart="162" />
    <vehicle id="ns_46" type="GenericCar" route="north_south" depart="167" />
    <vehicle id="ew_47" type="GenericCar" route="east_west" depart="179" />
    <vehicle id="ns_48" type="GenericCar" route="north_south" depart="182" />
    <vehicle id="ew_49" type="GenericCar" route="east_west" depart="190" />
    <vehicle id="ew_50" type="GenericCar" route="east_west" depart="193" />
    <vehicle id="ns_51" type="GenericCar" route="north_south" depart="199" />
    <vehicle id="sn_52" type="GenericCar" route="south_north" depart="205" />
    <vehicle id="ns_53" type="GenericCar" route="north_south" depart="208" />
    <vehicle id="ew_54" type="GenericCar" route="east_west" depart="212" />
    <vehicle id="sn_55" type="GenericCar" route="south_north" depart="220" />
    <vehicle id="ns_56" type="GenericCar" route="north_south" depart="221" />
    <vehicle id="ew_57" type="GenericCar" route="east_west" depart="226" />
    <vehicle id="sn_58" type="GenericCar" route="south_north" depart="231" />
    <vehicle id="we_59" type="GenericCar" route="west_east" depart="239" />
    <vehicle id="ns_60" type="GenericCar" route="north_south" depart="244" />
    <vehicle id="ns_61" type="GenericCar" route="north_south" depart="247" />
    <vehicle id="sn_62" type="GenericCar" route="south_north" depart="249" />
    <vehicle id="sn_63" type="GenericCar" route="south_north" depart="250" />
    <vehicle id="sn_64" type="GenericCar" route="south_north" depart="254" />
    <vehicle id="ew_65" type="GenericCar" route="east_west" depart="255" />
    <vehicle id="we_66" type="GenericCar" route="west_east" depart="256" />
    <vehicle id="ns_67" type="GenericCar" route="north_south" depart="256" />
    <vehicle id="ns_68" type="GenericCar" route="north_south" depart="259" />
    <vehicle id="sn_69" type="GenericCar" route="south_north" depart="262" />
    <vehicle id="we_70" type="GenericCar" route="west_east" depart="265" />
    <vehicle id="we_71" type="GenericCar" route="west_east" depart="272" />
    <vehicle id="we_72" type="GenericCar" route="west_east" depart="276" />
    <vehicle id="ns_73" type="GenericCar" route="north_south" depart="277" />
    <vehicle id="ns_74" type="GenericCar" route="north_south" depart="278" />
    <vehicle id="ew_75" type="GenericCar" route="east_west" depart="279" />
    <vehicle id="we_76" type="GenericCar" route="west_east" depart="280" />
    <vehicle id="we_77" type="GenericCar" route="west_east" depart="284" />
    <vehicle id="we_78" type="GenericCar" route="west_east" depart="287" />
    <vehicle id="we_79" type="GenericCar" route="west_east" depart="288" />
    <vehicle id="sn_80" type="GenericCar" route="south_north" depart="291" />
    <vehicle id="ew_81" type="GenericCar" route="east_west" depart="295" />
    <vehicle id="ns_82" type="GenericCar" route="north_south" depart="295" />
    <vehicle id="ew_83" type="GenericCar" route="east_west" depart="300" />
    <vehicle id="we_84" type="GenericCar" route="west_east" depart="302" />
    <vehicle id="ew_85" type="GenericCar" route="east_west" depart="302" />
    <vehicle id="ew_86" type="GenericCar" route="east_west" depart="303" />
    <vehicle id="ew_87" type="GenericCar" route="east_west" depart="305" />
    <vehicle id="ns_88" type="GenericCar" route="north_south" depart="305" />
    <vehicle id="ew_89" type="GenericCar" route="east_west" depart="308" />
    <vehicle id="we_90" type="GenericCar" route="west_east" depart="310" />
    <vehicle id="sn_91" type="GenericCar" route="south_north" depart="310" />
    <vehicle id="we_92" type="GenericCar" route="west_east" depart="311" />
    <vehicle id="sn_93" type="GenericCar" route="south_north" depart="316" />
    <vehicle id="ns_94" type="GenericCar" route="north_south" depart="320" />
    <vehicle id="sn_95" type="GenericCar" route="south_north" depart="323" />
    <vehicle id="ew_96" type="GenericCar" route="east_west" depart="333" />
    <vehicle id="ns_97" type="GenericCar" route="north_south" depart="333" />
    <vehicle id="sn_98" type="GenericCar" route="south_north" depart="334" />
    <vehicle id="sn_99" type="GenericCar" route="south_north" depart="336" />
    <vehicle id="ns_100" type="GenericCar" route="north_south" depart="341" />
    <vehicle id="sn_101" type="GenericCar" route="south_north" depart="342" />
    <vehicle id="sn_102" type="GenericCar" route="south_north" depart="348" />
    <vehicle id="we_103" type="GenericCar" route="west_east" depart="354" />
    <vehicle id="we_104" type="GenericCar" route="west_east" depart="355" />
    <vehicle id="sn_105" type="GenericCar" route="south_north" depart="359" />
    <vehicle id="ns_106" type="GenericCar" route="north_south" depart="361" />
    <vehicle id="ns_107" type="GenericCar" route="north_south" depart="362" />
    <vehicle id="we_108" type="GenericCar" route="west_east" depart="380" />
    <vehicle id="we_109" type="GenericCar" route="west_east" depart="388" />
    <vehicle id="ns_110" type="GenericCar" route="north_south" depart="388" />
    <vehicle id="ew_111" type="GenericCar" route="east_west" depart="390" />
    <vehicle id="sn_112" type="GenericCar" route="south_north" depart="394" />
    <vehicle id="ns_113" type="GenericCar" route="north_south" depart="395" />
    <vehicle id="ns_114" type="GenericCar" route="north_south" depart="400" />
    <vehicle id="ew_115" type="GenericCar" route="east_west" depart="401" />
    <vehicle id="we_116" type="GenericCar" route="west_east" depart="402" />
    <vehicle id="we_117" type="GenericCar" route="west_east" depart="404" />
    <vehicle id="ew_118" type="GenericCar" route="east_west" depart="405" />
    <vehicle id="ew_119" type="GenericCar" route="east_west" depart="406" />
    <vehicle id="ew_120" type="GenericCar" route="east_west" depart="409" />
    <vehicle id="we_121" type="GenericCar" route="west_east" depart="412" />
    <vehicle id="we_122" type="GenericCar" route="west_east" depart="418" />
    <vehicle id="we_123" type="GenericCar" route="west_east" depart="422" />
    <vehicle id="ew_124" type="GenericCar" route="east_west" depart="422" />
    <vehicle id="ns_125" type="GenericCar" route="north_south" depart="422" />
    <vehicle id="we_126" type="GenericCar" route="west_east" depart="423" />
    <vehicle id="ns_127" type="GenericCar" route="north_south" depart="430" />
    <vehicle id="ew_128" type="GenericCar" route="east_west" depart="432" />
    <vehicle id="ns_129" type="GenericCar" route="north_south" depart="440" />
    <vehicle id="ew_130" type="GenericCar" route="east_west" depart="444" />
    <vehicle id="sn_131" type="GenericCar" route="south_north" depart="444" />
    <vehicle id="we_132" type="GenericCar" route="west_east" depart="445" />
    <vehicle id="we_133" type="GenericCar" route="west_east" depart="451" />
    <vehicle id="sn_134" type="GenericCar" route="south_north" depart="451" />
    <vehicle id="we_135" type="GenericCar" route="west_east" depart="459" />
    <vehicle id="ns_136" type="GenericCar" route="north_south" depart="468" />
    <vehicle id="ew_137" type="GenericCar" route="east_west" depart="470" />
    <vehicle id="sn_138" type="GenericCar" route="south_north" depart="475" />
    <vehicle id="we_139" type="GenericCar" route="west_east" depart="479" />
    <vehicle id="sn_140" type="GenericCar" route="south_north" depart="479" />
    <vehicle id="we_141" type="GenericCar" route="west_east" depart="481" />
    <vehicle id="ns_142" type="GenericCar" route="north_south" depart="484" />
    <vehicle id="ew_143" type="GenericCar" route="east_west" depart="487" />
    <vehicle id="ew_144" type="GenericCar" route="east_west" depart="488" />
    <vehicle id="ns_145" type="GenericCar" route="north_south" depart="492" />
    <vehicle id="sn_146" type="GenericCar" route="south_north" depart="492" />
    <vehicle id="we_147" type="GenericCar" route="west_east" depart="493" />
    <vehicle id="we_148" type="GenericCar" route="west_east" depart="494" />
    <vehicle id="ns_149" type="GenericCar" route="north_south" depart="495" />
    <vehicle id="ns_150" type="GenericCar" route="north_south" depart="502" />
    <vehicle id="sn_151" type="GenericCar" route="south_north" depart="507" />
    <vehicle id="we_152" type="GenericCar" route="west_east" depart="508" />
    <vehicle id="ew_153" type="GenericCar" route="east_west" depart="509" />
    <vehicle id="ns_154" type="GenericCar" route="north_south" depart="509" />
    <vehicle id="we_155" type="GenericCar" route="west_east" depart="519" />
    <vehicle id="we_156" type="GenericCar" route="west_east" depart="522" />
    <vehicle id="ns_157" type="GenericCar" route="north_south" depart="529" />
    <vehicle id="ns_158" type="GenericCar" route="north_south" depart="530" />
    <vehicle id="ew_159" type="GenericCar" route="east_west" depart="533" />
    <vehicle id="we_160" type="GenericCar" route="west_east" depart="548" />
    <vehicle id="ns_161" type="GenericCar" route="north_south" depart="549" />
    <vehicle id="we_162" type="GenericCar" route="west_east" depart="551" />
    <vehicle id="ns_163" type="GenericCar" route="north_south" depart="552" />
    <vehicle id="we_164" type="GenericCar" route="west_east" depart="553" />
    <vehicle id="we_165" type="GenericCar" route="west_east" depart="559" />
    <vehicle id="sn_166" type="GenericCar" route="south_north" depart="562" />
    <vehicle id="ns_167" type="GenericCar" route="north_south" depart="564" />
    <vehicle id="ns_168" type="GenericCar" route="north_south" depart="565" />
    <vehicle id="ns_169" type="GenericCar" route="north_south" depart="567" />
    <vehicle id="ew_170" type="GenericCar" route="east_west" depart="568" />
    <vehicle id="we_171" type="GenericCar" route="west_east" depart="569" />
    <vehicle id="we_172" type="GenericCar" route="west_east" depart="570" />
    <vehicle id="we_173" type="GenericCar" route="west_east" depart="571" />
    <vehicle id="ew_174" type="GenericCar" route="east_west" depart="577" />
    <vehicle id="sn_175" type="GenericCar" route="south_north" depart="577" />
    <vehicle id="ew_176" type="GenericCar" route="east_west" depart="579" />
    <vehicle id="sn_177" type="GenericCar" route="south_north" depart="582" />
    <vehicle id="sn_178" type="GenericCar" route="south_north" depart="585" />
    <vehicle id="sn_179" type="GenericCar" route="south_north" depart="587" />
    <vehicle id="ew_180" type="GenericCar" route="east_west" depart="588" />
    <vehicle id="ns_181" type="GenericCar" route="north_south" depart="590" />
    <vehicle id="ns_182" type="GenericCar" route="north_south" depart="591" />
    <vehicle id="ew_183" type="GenericCar" route="east_west" depart="592" />
    <vehicle id="ew_184" type="GenericCar" route="east_west" depart="596" />
    <vehicle id="sn_185" type="GenericCar" route="south_north" depart="596" />
    <vehicle id="ew_186" type="GenericCar" route="east_west" depart="600" />
    <vehicle id="we_187" type="GenericCar" route="west_east" depart="604" />
    <vehicle id="we_188" type="GenericCar" route="west_east" depart="605" />
    <vehicle id="ew_189" type="GenericCar" route="east_west" depart="608" />
    <vehicle id="we_190" type="GenericCar" route="west_east" depart="611" />
    <vehicle id="ns_191" type="GenericCar" route="north_south" depart="614" />
    <vehicle id="ew_192" type="GenericCar" route="east_west" depart="620" />
    <vehicle id="we_193" type="GenericCar" route="west_east" depart="626" />
    <vehicle id="sn_194" type="GenericCar" route="south_north" depart="626" />
    <vehicle id="ns_195" type="GenericCar" route="north_south" depart="627" />
    <vehicle id="ns_196" type="GenericCar" route="north_south" depart="631" />
    <vehicle id="ew_197" type="GenericCar" route="east_west" depart="634" />
    <vehicle id="we_198" type="GenericCar" route="west_east" depart="635" />
    <vehicle id="we_199" type="GenericCar" route="west_east" depart="643" />
    <vehicle id="we_200" type="GenericCar" route="west_east" depart="644" />
    <vehicle id="we_201" type="GenericCar" route="west_east" depart="652" />
    <vehicle id="ns_202" type="GenericCar" route="north_south" depart="653" />
    <vehicle id="ns_203" type="GenericCar" route="north_south" depart="662" />
    <vehicle id="sn_204" type="GenericCar" route="south_north" depart="662" />
    <vehicle id="ew_205" type="GenericCar" route="east_west" depart="669" />
    <vehicle id="sn_206" type="GenericCar" route="south_north" depart="673" />
    <vehicle id="ew_207" type="GenericCar" route="east_west" depart="675" />
    <vehicle id="sn_208" type="GenericCar" route="south_north" depart="675" />
    <vehicle id="sn_209" type="GenericCar" route="south_north" depart="676" />
    <vehicle id="ns_210" type="GenericCar" route="north_south" depart="678" />
    <vehicle id="we_211" type="GenericCar" route="west_east" depart="679" />
    <vehicle id="ns_212" type="GenericCar" route="north_south" depart="685" />
    <vehicle id="ew_213" type="GenericCar" route="east_west" depart="688" />
    <vehicle id="sn_214" type="GenericCar" route="south_north" depart="689" />
    <vehicle id="sn_215" type="GenericCar" route="south_north" depart="690" />
    <vehicle id="we_216" type="GenericCar" route="west_east" depart="691" />
    <vehicle id="ew_217" type="GenericCar" route="east_west" depart="691" />
    <vehicle id="ew_218" type="GenericCar" route="east_west" depart="704" />
    <vehicle id="ns_219" type="GenericCar" route="north_south" depart="709" />
    <vehicle id="sn_220" type="GenericCar" route="south_north" depart="712" />
    <vehicle id="ew_221" type="GenericCar" route="east_west" depart="713" />
    <vehicle id="we_222" type="GenericCar" route="west_east" depart="714" />
    <vehicle id="sn_223" type="GenericCar" route="south_north" depart="715" />
    <vehicle id="we_224" type="GenericCar" route="west_east" depart="724" />
    <vehicle id="ns_225" type="GenericCar" route="north_south" depart="725" />
    <vehicle id="ew_226" type="GenericCar" route="east_west" depart="729" />
    <vehicle id="ns_227" type="GenericCar" route="north_south" depart="729" />
    <vehicle id="ns_228" type="GenericCar" route="north_south" depart="734" />
    <vehicle id="ns_229" type="GenericCar" route="north_south" depart="736" />
    <vehicle id="ew_230" type="GenericCar" route="east_west" depart="737" />
    <vehicle id="we_231" type="GenericCar" route="west_east" depart="738" />
    <vehicle id="sn_232" type="GenericCar" route="south_north" depart="742" />
    <vehicle id="we_233" type="GenericCar" route="west_east" depart="744" />
    <vehicle id="ns_234" type="GenericCar" route="north_south" depart="744" />
    <vehicle id="we_235" type="GenericCar" route="west_east" depart="746" />
    <vehicle id="ns_236" type="GenericCar" route="north_south" depart="746" />
    <vehicle id="ew_237" type="GenericCar" route="east_west" depart="748" />
    <vehicle id="ns_238" type="GenericCar" route="north_south" depart="748" />
    <vehicle id="ew_239" type="GenericCar" route="east_west" depart="749" />
    <vehicle id="we_240" type="GenericCar" route="west_east" depart="752" />
    <vehicle id="ew_241" type="GenericCar" route="east_west" depart="753" />
    <vehicle id="sn_242" type="GenericCar" route="south_north" depart="760" />
    <vehicle id="ns_243" type="GenericCar" route="north_south" depart="764" />
    <vehicle id="ns_244" type="GenericCar" route="north_south" depart="769" />
    <vehicle id="ew_245" type="GenericCar" route="east_west" depart="775" />
    <vehicle id="ew_246" type="GenericCar" route="east_west" depart="788" />
    <vehicle id="ns_247" type="GenericCar" route="north_south" depart="793" />
    <vehicle id="ns_248" type="GenericCar" route="north_south" depart="794" />
    <vehicle id="sn_249" type="GenericCar" route="south_north" depart="800" />
    <vehicle id="sn_250" type="GenericCar" route="south_north" depart="802" />
    <vehicle id="we_251" type="GenericCar" route="west_east" depart="805" />
    <vehicle id="sn_252" type="GenericCar" route="south_north" depart="806" />
    <vehicle id="ns_253" type="GenericCar" route="north_south" depart="815" />
    <vehicle id="we_254" type="GenericCar" route="west_east" depart="816" />
    <vehicle id="ns_255" type="GenericCar" route="north_south" depart="816" />
    <vehicle id="ns_256" type="GenericCar" route="north_south" depart="819" />
    <vehicle id="we_257" type="GenericCar" route="west_east" depart="824" />
    <vehicle id="we_258" type="GenericCar" route="west_east" depart="833" />
    <vehicle id="ew_259" type="GenericCar" route="east_west" depart="833" />
    <vehicle id="ew_260" type="GenericCar" route="east_west" depart="837" />
    <vehicle id="ns_261" type="GenericCar" route="north_south" depart="837" />
    <vehicle id="we_262" type="GenericCar" route="west_east" depart="838" />
    <vehicle id="we_263" type="GenericCar" route="west_east" depart="843" />
    <vehicle id="ns_264" type="GenericCar" route="north_south" depart="844" />
    <vehicle id="sn_265" type="GenericCar" route="south_north" depart="844" />
    <vehicle id="ns_266" type="GenericCar" route="north_south" depart="850" />
    <vehicle id="sn_267" type="GenericCar" route="south_north" depart="853" />
    <vehicle id="we_268" type="GenericCar" route="west_east" depart="857" />
    <vehicle id="we_269" type="GenericCar" route="west_east" depart="859" />
    <vehicle id="sn_270" type="GenericCar" route="south_north" depart="861" />
    <vehicle id="ns_271" type="GenericCar" route="north_south" depart="872" />
    <vehicle id="ew_272" type="GenericCar" route="east_west" depart="873" />
    <vehicle id="ew_273" type="GenericCar" route="east_west" depart="876" />
    <vehicle id="sn_274" type="GenericCar" route="south_north" depart="879" />
    <vehicle id="ew_275" type="GenericCar" route="east_west" depart="880" />
    <vehicle id="ns_276" type="GenericCar" route="north_south" depart="881" />
    <vehicle id="ew_277" type="GenericCar" route="east_west" depart="884" />
    <vehicle id="we_278" type="GenericCar" route="west_east" depart="888" />
    <vehicle id="sn_279" type="GenericCar" route="south_north" depart="895" />
    <vehicle id="ew_280" type="GenericCar" route="east_west" depart="899" />
    <vehicle id="sn_281" type="GenericCar" route="south_north" depart="900" />
    <vehicle id="we_282" type="GenericCar" route="west_east" depart="902" />
    <vehicle id="ew_283" type="GenericCar" route="east_west" depart="912" />
    <vehicle id="sn_284" type="GenericCar" route="south_north" depart="913" />
    <vehicle id="ns_285" type="GenericCar" route="north_south" depart="916" />
    <vehicle id="ew_286" type="GenericCar" route="east_west" depart="919" />
    <vehicle id="ns_287" type="GenericCar" route="north_south" depart="922" />
    <vehicle id="ew_288" type="GenericCar" route="east_west" depart="931" />
    <vehicle id="ns_289" type="GenericCar" route="north_south" depart="935" />
    <vehicle id="sn_290" type="GenericCar" route="south_north" depart="940" />
    <vehicle id="ew_291" type="GenericCar" route="east_west" depart="944" />
    <vehicle id="we_292" type="GenericCar" route="west_east" depart="947" />
    <vehicle id="ns_293" type="GenericCar" route="north_south" depart="953" />
    <vehicle id="ew_294" type="GenericCar" route="east_west" depart="964" />
    <vehicle id="we_295" type="GenericCar" route="west_east" depart="970" />
    <vehicle id="ns_296" type="GenericCar" route="north_south" depart="970" />
    <vehicle id="ew_297" type="GenericCar" route="east_west" depart="972" />
    <vehicle id="ns_298" type="GenericCar" route="north_south" depart="974" />
    <vehicle id="sn_299" type="GenericCar" route="south_north" depart="981" />
    <vehicle id="sn_300" type="GenericCar" route="south_north" depart="986" />
    <vehicle id="we_301" type="GenericCar" route="west_east" depart="988" />
    <vehicle id="ew_302" type="GenericCar" route="east_west" depart="988" />
    <vehicle id="we_303" type="GenericCar" route="west_east" depart="992" />
    <vehicle id="ew_304" type="GenericCar" route="east_west" depart="993" />
    <vehicle id="ew_305" type="GenericCar" route="east_west" depart="1004" />
    <vehicle id="ew_306" type="GenericCar" route="east_west" depart="1007" />
    <vehicle id="ns_307" type="GenericCar" route="north_south" depart="1009" />
    <vehicle id="sn_308" type="GenericCar" route="south_north" depart="1010" />
    <vehicle id="sn_309" type="GenericCar" route="south_north" depart="1016" />
    <vehicle id="ns_310" type="GenericCar" route="north_south" depart="1017" />
    <vehicle id="we_311" type="GenericCar" route="west_east" depart="1018" />
    <vehicle id="we_312" type="GenericCar" route="west_east" depart="1020" />
    <vehicle id="we_313" type="GenericCar" route="west_east" depart="1028" />
    <vehicle id="ns_314" type="GenericCar" route="north_south" depart="1029" />
    <vehicle id="ns_315" type="GenericCar" route="north_south" depart="1033" />
    <vehicle id="we_316" type="GenericCar" route="west_east" depart="1040" />
    <vehicle id="ns_317" type="GenericCar" route="north_south" depart="1044" />
    <vehicle id="ew_318" type="GenericCar" route="east_west" depart="1045" />
    <vehicle id="we_319" type="GenericCar" route="west_east" depart="1046" />
    <vehicle id="ns_320" type="GenericCar" route="north_south" depart="1046" />
    <vehicle id="ns_321" type="GenericCar" route="north_south" depart="1048" />
    <vehicle id="sn_322" type="GenericCar" route="south_north" depart="1049" />
    <vehicle id="we_323" type="GenericCar" route="west_east" depart="1050" />
    <vehicle id="we_324" type="GenericCar" route="west_east" depart="1056" />
    <vehicle id="we_325" type="GenericCar" route="west_east" depart="1058" />
    <vehicle id="ew_326" type="GenericCar" route="east_west" depart="1060" />
    <vehicle id="ns_327" type="GenericCar" route="north_south" depart="1062" />
    <vehicle id="ew_328" type="GenericCar" route="east_west" depart="1070" />
    <vehicle id="sn_329" type="GenericCar" route="south_north" depart="1071" />
    <vehicle id="ns_330" type="GenericCar" route="north_south" depart="1077" />
    <vehicle id="ns_331" type="GenericCar" route="north_south" depart="1082" />
    <vehicle id="we_332" type="GenericCar" route="west_east" depart="1086" />
    <vehicle id="ns_333" type="GenericCar" route="north_south" depart="1086" />
    <vehicle id="ns_334" type="GenericCar" route="north_south" depart="1088" />
    <vehicle id="we_335" type="GenericCar" route="west_east" depart="1090" />
    <vehicle id="sn_336" type="GenericCar" route="south_north" depart="1102" />
    <vehicle id="sn_337" type="GenericCar" route="south_north" depart="1103" />
    <vehicle id="ew_338" type="GenericCar" route="east_west" depart="1104" />
    <vehicle id="we_339" type="GenericCar" route="west_east" depart="1109" />
    <vehicle id="we_340" type="GenericCar" route="west_east" depart="1113" />
    <vehicle id="ew_341" type="GenericCar" route="east_west" depart="1113" />
    <vehicle id="ns_342" type="GenericCar" route="north_south" depart="1113" />
    <vehicle id="ns_343" type="GenericCar" route="north_south" depart="1118" />
    <vehicle id="ew_344" type="GenericCar" route="east_west" depart="1120" />
    <vehicle id="ns_345" type="GenericCar" route="north_south" depart="1125" />
    <vehicle id="we_346" type="GenericCar" route="west_east" depart="1134" />
    <vehicle id="we_347" type="GenericCar" route="west_east" depart="1136" />
    <vehicle id="sn_348" type="GenericCar" route="south_north" depart="1143" />
    <vehicle id="we_349" type="GenericCar" route="west_east" depart="1144" />
    <vehicle id="ew_350" type="GenericCar" route="east_west" depart="1153" />
    <vehicle id="ns_351" type="GenericCar" route="north_south" depart="1153" />
    <vehicle id="ew_352" type="GenericCar" route="east_west" depart="1154" />
    <vehicle id="ns_353" type="GenericCar" route="north_south" depart="1155" />
    <vehicle id="sn_354" type="GenericCar" route="south_north" depart="1156" />
    <vehicle id="we_355" type="GenericCar" route="west_east" depart="1172" />
    <vehicle id="we_356" type="GenericCar" route="west_east" depart="1173" />
    <vehicle id="we_357" type="GenericCar" route="west_east" depart="1174" />
    <vehicle id="we_358" type="GenericCar" route="west_east" depart="1177" />
    <vehicle id="ew_359" type="GenericCar" route="east_west" depart="1177" />
    <vehicle id="we_360" type="GenericCar" route="west_east" depart="1178" />
    <vehicle id="we_361" type="GenericCar" route="west_east" depart="1180" />
    <vehicle id="ew_362" type="GenericCar" route="east_west" depart="1187" />
    <vehicle id="ns_363" type="GenericCar" route="north_south" depart="1203" />
    <vehicle id="we_364" type="GenericCar" route="west_east" depart="1205" />
    <vehicle id="we_365" type="GenericCar" route="west_east" depart="1207" />
    <vehicle id="ns_366" type="GenericCar" route="north_south" depart="1208" />
    <vehicle id="we_367" type="GenericCar" route="west_east" depart="1215" />
    <vehicle id="we_368" type="GenericCar" route="west_east" depart="1218" />
    <vehicle id="sn_369" type="GenericCar" route="south_north" depart="1220" />
    <vehicle id="ew_370" type="GenericCar" route="east_west" depart="1221" />
    <vehicle id="ns_371" type="GenericCar" route="north_south" depart="1222" />
    <vehicle id="sn_372" type="GenericCar" route="south_north" depart="1223" />
    <vehicle id="we_373" type="GenericCar" route="west_east" depart="1224" />
    <vehicle id="ns_374" type="GenericCar" route="north_south" depart="1225" />
    <vehicle id="sn_375" type="GenericCar" route="south_north" depart="1231" />
    <vehicle id="we_376" type="GenericCar" route="west_east" depart="1233" />
    <vehicle id="we_377" type="GenericCar" route="west_east" depart="1234" />
    <vehicle id="ew_378" type="GenericCar" route="east_west" depart="1234" />
    <vehicle id="sn_379" type="GenericCar" route="south_north" depart="1238" />
    <vehicle id="we_380" type="GenericCar" route="west_east" depart="1243" />