<?xml version="1.0" encoding="UTF-8"?>

<!-- generated on 09/19/18 09:01:54 by Eclipse SUMO duarouter Version 1.0.0
<configuration xmlns:xsi="http://www.w3.org/2001/XMLSchema-instance" xsi:noNamespaceSchemaLocation="http://sumo.dlr.de/xsd/duarouterConfiguration.xsd">

    <input>
        <net-file value="turns.net.xml"/>
        <route-files value="trips.trips.xml"/>
    </input>

    <output>
        <output-file value="turns.rou.xml"/>
        <alternatives-output value="turns.rou.alt.xml"/>
    </output>

    <time>
        <begin value="0"/>
        <end value="3600"/>
    </time>

    <report>
        <no-warnings value="true"/>
        <ignore-errors value="true"/>
        <no-step-log value="true"/>
    </report>

</configuration>
-->

<routes xmlns:xsi="http://www.w3.org/2001/XMLSchema-instance" xsi:noNamespaceSchemaLocation="http://sumo.dlr.de/xsd/routes_file.xsd">
    <vehicle id="0" depart="1.00">
        <route edges="SN_1 WE_2"/>
    </vehicle>
    <vehicle id="1" depart="1.00">
        <route edges="EW_1 EW_2"/>
    </vehicle>
    <vehicle id="3" depart="1.00">
        <route edges="NS_1 NS_2"/>
    </vehicle>
    <vehicle id="5" depart="1.00">
        <route edges="EW_1 SN_2"/>
    </vehicle>
    <vehicle id="7" depart="1.00">
        <route edges="NS_1 NS_2"/>
    </vehicle>
    <vehicle id="10" depart="1.00">
        <route edges="EW_1 EW_2"/>
    </vehicle>
    <vehicle id="14" depart="1.00">
        <route edges="EW_1 EW_2"/>
    </vehicle>
    <vehicle id="18" depart="1.00">
        <route edges="SN_1 WE_2"/>
    </vehicle>
    <vehicle id="20" depart="1.00">
        <route edges="WE_1 WE_2"/>
    </vehicle>
    <vehicle id="22" depart="1.00">
        <route edges="WE_1 WE_2"/>
    </vehicle>
    <vehicle id="24" depart="1.00">
        <route edges="EW_1 EW_2"/>
    </vehicle>
    <vehicle id="28" depart="1.00">
        <route edges="WE_1 NS_2"/>
    </vehicle>
    <vehicle id="31" depart="1.00">
        <route edges="NS_1 NS_2"/>
    </vehicle>
    <vehicle id="32" depart="1.00">
        <route edges="EW_1 EW_2"/>
    </vehicle>
    <vehicle id="33" depart="1.00">
        <route edges="WE_1 NS_2"/>
    </vehicle>
    <vehicle id="34" depart="1.00">
        <route edges="NS_1 NS_2"/>
    </vehicle>
    <vehicle id="37" depart="1.00">
        <route edges="EW_1 EW_2"/>
    </vehicle>
    <vehicle id="38" depart="1.00">
        <route edges="NS_1 NS_2"/>
    </vehicle>
    <vehicle id="44" depart="1.00">
        <route edges="SN_1 SN_2"/>
    </vehicle>
    <vehicle id="45" depart="1.00">
        <route edges="EW_1 EW_2"/>
    </vehicle>
    <vehicle id="47" depart="1.00">
        <route edges="NS_1 NS_2"/>
    </vehicle>
    <vehicle id="48" depart="1.00">
        <route edges="NS_1 NS_2"/>
    </vehicle>
    <vehicle id="49" depart="1.00">
        <route edges="EW_1 SN_2"/>
    </vehicle>
    <vehicle id="50" depart="1.00">
        <route edges="WE_1 WE_2"/>
    </vehicle>
    <vehicle id="54" depart="1.00">
        <route edges="EW_1 SN_2"/>
    </vehicle>
    <vehicle id="57" depart="1.00">
        <route edges="NS_1 NS_2"/>
    </vehicle>
    <vehicle id="58" depart="1.00">
        <route edges="SN_1 WE_2"/>
    </vehicle>
    <vehicle id="61" depart="1.00">
        <route edges="WE_1 NS_2"/>
    </vehicle>
    <vehicle id="63" depart="1.00">
        <route edges="WE_1 NS_2"/>
    </vehicle>
    <vehicle id="64" depart="1.00">
        <route edges="WE_1 NS_2"/>
    </vehicle>
    <vehicle id="69" depart="1.00">
        <route edges="WE_1 WE_2"/>
    </vehicle>
    <vehicle id="70" depart="1.00">
        <route edges="NS_1 NS_2"/>
    </vehicle>
    <vehicle id="71" depart="1.00">
        <route edges="SN_1 WE_2"/>
    </vehicle>
    <vehicle id="72" depart="1.00">
        <route edges="NS_1 NS_2"/>
    </vehicle>
    <vehicle id="74" depart="1.00">
        <route edges="SN_1 WE_2"/>
    </vehicle>
    <vehicle id="75" depart="1.00">
        <route edges="WE_1 NS_2"/>
    </vehicle>
    <vehicle id="76" depart="1.00">
        <route edges="NS_1 EW_2"/>
    </vehicle>
    <vehicle id="77" depart="1.00">
        <route edges="EW_1 EW_2"/>
    </vehicle>
    <vehicle id="80" depart="1.00">
        <route edges="WE_1 WE_2"/>
    </vehicle>
    <vehicle id="81" depart="1.00">
        <route edges="EW_1 SN_2"/>
    </vehicle>
    <vehicle id="82" depart="1.00">
        <route edges="WE_1 WE_2"/>
    </vehicle>
    <vehicle id="86" depart="1.00">
        <route edges="NS_1 NS_2"/>
    </vehicle>
    <vehicle id="90" depart="1.00">
        <route edges="NS_1 NS_2"/>
    </vehicle>
    <vehicle id="92" depart="1.00">
        <route edges="SN_1 WE_2"/>
    </vehicle>
    <vehicle id="93" depart="1.00">
        <route edges="SN_1 SN_2"/>
    </vehicle>
    <vehicle id="94" depart="1.00">
        <route edges="SN_1 SN_2"/>
    </vehicle>
    <vehicle id="96" depart="1.00">
        <route edges="EW_1 SN_2"/>
    </vehicle>
    <vehicle id="97" depart="1.00">
        <route edges="EW_1 EW_2"/>
    </vehicle>
    <vehicle id="99" depart="1.00">
        <route edges="SN_1 WE_2"/>
    </vehicle>
    <vehicle id="100" depart="1.00">
        <route edges="NS_1 EW_2"/>
    </vehicle>
    <vehicle id="101" depart="1.00">
        <route edges="NS_1 NS_2"/>
    </vehicle>
    <vehicle id="107" depart="1.00">
        <route edges="SN_1 SN_2"/>
    </vehicle>
    <vehicle id="110" depart="1.00">
        <route edges="EW_1 EW_2"/>
    </vehicle>
    <vehicle id="111" depart="1.00">
        <route edges="EW_1 SN_2"/>
    </vehicle>
    <vehicle id="116" depart="1.00">
        <route edges="EW_1 SN_2"/>
    </vehicle>
    <vehicle id="117" depart="1.00">
        <route edges="EW_1 SN_2"/>
    </vehicle>
    <vehicle id="118" depart="1.00">
        <route edges="EW_1 EW_2"/>
    </vehicle>
    <vehicle id="119" depart="1.00">
        <route edges="EW_1 EW_2"/>
    </vehicle>
    <vehicle id="120" depart="1.00">
        <route edges="EW_1 SN_2"/>
    </vehicle>
    <vehicle id="121" depart="1.00">
        <route edges="WE_1 NS_2"/>
    </vehicle>
    <vehicle id="124" depart="1.00">
        <route edges="SN_1 SN_2"/>
    </vehicle>
    <vehicle id="125" depart="1.00">
        <route edges="EW_1 EW_2"/>
    </vehicle>
    <vehicle id="129" depart="1.00">
        <route edges="SN_1 WE_2"/>
    </vehicle>
    <vehicle id="131" depart="1.00">
        <route edges="NS_1 NS_2"/>
    </vehicle>
    <vehicle id="132" depart="1.00">
        <route edges="EW_1 EW_2"/>
    </vehicle>
    <vehicle id="136" depart="1.00">
        <route edges="SN_1 WE_2"/>
    </vehicle>
    <vehicle id="137" depart="1.00">
        <route edges="SN_1 SN_2"/>
    </vehicle>
    <vehicle id="139" depart="1.00">
        <route edges="EW_1 SN_2"/>
    </vehicle>
    <vehicle id="141" depart="1.00">
        <route edges="NS_1 NS_2"/>
    </vehicle>
    <vehicle id="143" depart="1.00">
        <route edges="NS_1 EW_2"/>
    </vehicle>
    <vehicle id="144" depart="1.00">
        <route edges="WE_1 WE_2"/>
    </vehicle>
    <vehicle id="146" depart="1.00">
        <route edges="SN_1 SN_2"/>
    </vehicle>
    <vehicle id="147" depart="1.00">
        <route edges="NS_1 NS_2"/>
    </vehicle>
    <vehicle id="148" depart="1.00">
        <route edges="SN_1 SN_2"/>
    </vehicle>
    <vehicle id="149" depart="1.00">
        <route edges="WE_1 WE_2"/>
    </vehicle>
    <vehicle id="150" depart="1.00">
        <route edges="EW_1 EW_2"/>
    </vehicle>
    <vehicle id="156" depart="1.00">
        <route edges="EW_1 SN_2"/>
    </vehicle>
    <vehicle id="158" depart="1.00">
        <route edges="NS_1 NS_2"/>
    </vehicle>
    <vehicle id="159" depart="1.00">
        <route edges="EW_1 SN_2"/>
    </vehicle>
    <vehicle id="162" depart="1.00">
        <route edges="NS_1 EW_2"/>
    </vehicle>
    <vehicle id="163" depart="1.00">
        <route edges="SN_1 SN_2"/>
    </vehicle>
    <vehicle id="167" depart="1.00">
        <route edges="NS_1 NS_2"/>
    </vehicle>
    <vehicle id="169" depart="1.00">
        <route edges="NS_1 NS_2"/>
    </vehicle>
    <vehicle id="171" depart="1.00">
        <route edges="NS_1 NS_2"/>
    </vehicle>
    <vehicle id="176" depart="1.00">
        <route edges="NS_1 EW_2"/>
    </vehicle>
    <vehicle id="181" depart="1.00">
        <route edges="WE_1 NS_2"/>
    </vehicle>
    <vehicle id="190" depart="1.00">
        <route edges="WE_1 WE_2"/>
    </vehicle>
    <vehicle id="192" depart="1.00">
        <route edges="WE_1 NS_2"/>
    </vehicle>
    <vehicle id="193" depart="1.00">
        <route edges="SN_1 SN_2"/>
    </vehicle>
    <vehicle id="194" depart="1.00">
        <route edges="SN_1 SN_2"/>
    </vehicle>
    <vehicle id="195" depart="1.00">
        <route edges="NS_1 NS_2"/>
    </vehicle>
    <vehicle id="196" depart="1.00">
        <route edges="SN_1 WE_2"/>
    </vehicle>
    <vehicle id="198" depart="1.00">
        <route edges="NS_1 NS_2"/>
    </vehicle>
    <vehicle id="200" depart="1.00">
        <route edges="NS_1 NS_2"/>
    </vehicle>
    <vehicle id="201" depart="1.00">
        <route edges="WE_1 WE_2"/>
    </vehicle>
    <vehicle id="204" depart="1.00">
        <route edges="NS_1 NS_2"/>
    </vehicle>
    <vehicle id="206" depart="1.00">
        <route edges="EW_1 EW_2"/>
    </vehicle>
    <vehicle id="207" depart="1.00">
        <route edges="WE_1 WE_2"/>
    </vehicle>
    <vehicle id="209" depart="1.00">
        <route edges="SN_1 WE_2"/>
    </vehicle>
    <vehicle id="212" depart="1.00">
        <route edges="WE_1 WE_2"/>
    </vehicle>
    <vehicle id="215" depart="1.00">
        <route edges="NS_1 EW_2"/>
    </vehicle>
    <vehicle id="219" depart="1.00">
        <route edges="EW_1 EW_2"/>
    </vehicle>
    <vehicle id="220" depart="1.00">
        <route edges="WE_1 NS_2"/>
    </vehicle>
    <vehicle id="223" depart="1.00">
        <route edges="WE_1 WE_2"/>
    </vehicle>
    <vehicle id="225" depart="1.00">
        <route edges="SN_1 SN_2"/>
    </vehicle>
    <vehicle id="226" depart="1.00">
        <route edges="SN_1 SN_2"/>
    </vehicle>
    <vehicle id="227" depart="1.00">
        <route edges="EW_1 EW_2"/>
    </vehicle>
    <vehicle id="228" depart="1.00">
        <route edges="NS_1 NS_2"/>
    </vehicle>
    <vehicle id="229" depart="1.00">
        <route edges="EW_1 EW_2"/>
    </vehicle>
    <vehicle id="230" depart="1.00">
        <route edges="WE_1 NS_2"/>
    </vehicle>
    <vehicle id="232" depart="1.00">
        <route edges="EW_1 SN_2"/>
    </vehicle>
    <vehicle id="233" depart="1.00">
        <route edges="WE_1 WE_2"/>
    </vehicle>
    <vehicle id="237" depart="1.00">
        <route edges="NS_1 EW_2"/>
    </vehicle>
    <vehicle id="238" depart="1.00">
        <route edges="EW_1 SN_2"/>
    </vehicle>
    <vehicle id="239" depart="1.00">
        <route edges="WE_1 NS_2"/>
    </vehicle>
    <vehicle id="240" depart="1.00">
        <route edges="NS_1 EW_2"/>
    </vehicle>
    <vehicle id="241" depart="1.00">
        <route edges="SN_1 WE_2"/>
    </vehicle>
    <vehicle id="246" depart="1.00">
        <route edges="SN_1 SN_2"/>
    </vehicle>
    <vehicle id="248" depart="1.00">
        <route edges="SN_1 SN_2"/>
    </vehicle>
    <vehicle id="251" depart="1.00">
        <route edges="WE_1 WE_2"/>
    </vehicle>
    <vehicle id="253" depart="1.00">
        <route edges="WE_1 WE_2"/>
    </vehicle>
    <vehicle id="254" depart="1.00">
        <route edges="SN_1 WE_2"/>
    </vehicle>
    <vehicle id="256" depart="1.00">
        <route edges="NS_1 NS_2"/>
    </vehicle>
    <vehicle id="259" depart="1.00">
        <route edges="WE_1 NS_2"/>
    </vehicle>
    <vehicle id="263" depart="1.00">
        <route edges="EW_1 EW_2"/>
    </vehicle>
    <vehicle id="265" depart="1.00">
        <route edges="NS_1 EW_2"/>
    </vehicle>
    <vehicle id="267" depart="1.00">
        <route edges="NS_1 EW_2"/>
    </vehicle>
    <vehicle id="268" depart="1.00">
        <route edges="SN_1 WE_2"/>
    </vehicle>
    <vehicle id="269" depart="1.00">
        <route edges="NS_1 EW_2"/>
    </vehicle>
    <vehicle id="271" depart="1.00">
        <route edges="NS_1 EW_2"/>
    </vehicle>
    <vehicle id="272" depart="1.00">
        <route edges="NS_1 EW_2"/>
    </vehicle>
    <vehicle id="282" depart="1.00">
        <route edges="SN_1 SN_2"/>
    </vehicle>
    <vehicle id="284" depart="1.00">
        <route edges="NS_1 EW_2"/>
    </vehicle>
    <vehicle id="285" depart="1.00">
        <route edges="NS_1 EW_2"/>
    </vehicle>
    <vehicle id="289" depart="1.00">
        <route edges="NS_1 NS_2"/>
    </vehicle>
    <vehicle id="291" depart="1.00">
        <route edges="WE_1 NS_2"/>
    </vehicle>
    <vehicle id="293" depart="1.00">
        <route edges="NS_1 EW_2"/>
    </vehicle>
    <vehicle id="295" depart="1.00">
        <route edges="SN_1 SN_2"/>
    </vehicle>
    <vehicle id="297" depart="1.00">
        <route edges="WE_1 NS_2"/>
    </vehicle>
    <vehicle id="298" depart="1.00">
        <route edges="SN_1 WE_2"/>
    </vehicle>
    <vehicle id="301" depart="1.00">
        <route edges="EW_1 SN_2"/>
    </vehicle>
    <vehicle id="302" depart="1.00">
        <route edges="NS_1 NS_2"/>
    </vehicle>
    <vehicle id="305" depart="1.00">
        <route edges="EW_1 EW_2"/>
    </vehicle>
    <vehicle id="307" depart="1.00">
        <route edges="EW_1 SN_2"/>
    </vehicle>
    <vehicle id="309" depart="1.00">
        <route edges="WE_1 WE_2"/>
    </vehicle>
    <vehicle id="311" depart="1.00">
        <route edges="WE_1 NS_2"/>
    </vehicle>
    <vehicle id="313" depart="1.00">
        <route edges="WE_1 NS_2"/>
    </vehicle>
    <vehicle id="314" depart="1.00">
        <route edges="SN_1 WE_2"/>
    </vehicle>
    <vehicle id="315" depart="1.00">
        <route edges="SN_1 SN_2"/>
    </vehicle>
    <vehicle id="317" depart="1.00">
        <route edges="WE_1 WE_2"/>
    </vehicle>
    <vehicle id="320" depart="1.00">
        <route edges="SN_1 SN_2"/>
    </vehicle>
    <vehicle id="321" depart="1.00">
        <route edges="NS_1 NS_2"/>
    </vehicle>
    <vehicle id="322" depart="1.00">
        <route edges="WE_1 WE_2"/>
    </vehicle>
    <vehicle id="323" depart="1.00">
        <route edges="SN_1 WE_2"/>
    </vehicle>
    <vehicle id="325" depart="1.00">
        <route edges="EW_1 SN_2"/>
    </vehicle>
    <vehicle id="326" depart="1.00">
        <route edges="EW_1 SN_2"/>
    </vehicle>
    <vehicle id="328" depart="1.00">
        <route edges="NS_1 EW_2"/>
    </vehicle>
    <vehicle id="329" depart="1.00">
        <route edges="NS_1 NS_2"/>
    </vehicle>
    <vehicle id="331" depart="1.00">
        <route edges="WE_1 WE_2"/>
    </vehicle>
    <vehicle id="332" depart="1.00">
        <route edges="EW_1 SN_2"/>
    </vehicle>
    <vehicle id="333" depart="1.00">
        <route edges="SN_1 WE_2"/>
    </vehicle>
    <vehicle id="338" depart="1.00">
        <route edges="NS_1 NS_2"/>
    </vehicle>
    <vehicle id="339" depart="1.00">
        <route edges="NS_1 NS_2"/>
    </vehicle>
    <vehicle id="341" depart="1.00">
        <route edges="NS_1 NS_2"/>
    </vehicle>
    <vehicle id="342" depart="1.00">
        <route edges="SN_1 WE_2"/>
    </vehicle>
    <vehicle id="344" depart="1.00">
        <route edges="EW_1 SN_2"/>
    </vehicle>
    <vehicle id="346" depart="1.00">
        <route edges="EW_1 SN_2"/>
    </vehicle>
    <vehicle id="348" depart="1.00">
        <route edges="WE_1 WE_2"/>
    </vehicle>
    <vehicle id="349" depart="1.00">
        <route edges="NS_1 NS_2"/>
    </vehicle>
    <vehicle id="352" depart="1.00">
        <route edges="EW_1 EW_2"/>
    </vehicle>
    <vehicle id="355" depart="1.00">
        <route edges="EW_1 SN_2"/>
    </vehicle>
    <vehicle id="358" depart="1.00">
        <route edges="EW_1 SN_2"/>
    </vehicle>
    <vehicle id="359" depart="1.00">
        <route edges="WE_1 WE_2"/>
    </vehicle>
    <vehicle id="363" depart="1.00">
        <route edges="WE_1 WE_2"/>
    </vehicle>
    <vehicle id="365" depart="1.00">
        <route edges="SN_1 WE_2"/>
    </vehicle>
    <vehicle id="367" depart="1.00">
        <route edges="NS_1 NS_2"/>
    </vehicle>
    <vehicle id="369" depart="1.00">
        <route edges="EW_1 SN_2"/>
    </vehicle>
    <vehicle id="373" depart="1.00">
        <route edges="EW_1 EW_2"/>
    </vehicle>
    <vehicle id="377" depart="1.00">
        <route edges="EW_1 EW_2"/>
    </vehicle>
    <vehicle id="378" depart="1.00">
        <route edges="WE_1 WE_2"/>
    </vehicle>
    <vehicle id="381" depart="1.00">
        <route edges="EW_1 SN_2"/>
    </vehicle>
    <vehicle id="382" depart="1.00">
        <route edges="EW_1 EW_2"/>
    </vehicle>
    <vehicle id="384" depart="1.00">
        <route edges="SN_1 WE_2"/>
    </vehicle>
    <vehicle id="385" depart="1.00">
        <route edges="NS_1 NS_2"/>
    </vehicle>
    <vehicle id="388" depart="1.00">
        <route edges="SN_1 SN_2"/>
    </vehicle>
    <vehicle id="389" depart="1.00">
        <route edges="WE_1 WE_2"/>
    </vehicle>
    <vehicle id="390" depart="1.00">
        <route edges="NS_1 NS_2"/>
    </vehicle>
    <vehicle id="393" depart="1.00">
        <route edges="WE_1 WE_2"/>
    </vehicle>
    <vehicle id="394" depart="1.00">
        <route edges="SN_1 SN_2"/>
    </vehicle>
    <vehicle id="395" depart="1.00">
        <route edges="WE_1 NS_2"/>
    </vehicle>
    <vehicle id="396" depart="1.00">
        <route edges="EW_1 EW_2"/>
    </vehicle>
    <vehicle id="402" depart="1.00">
        <route edges="EW_1 SN_2"/>
    </vehicle>
    <vehicle id="404" depart="1.00">
        <route edges="WE_1 NS_2"/>
    </vehicle>
    <vehicle id="405" depart="1.00">
        <route edges="SN_1 WE_2"/>
    </vehicle>
    <vehicle id="409" depart="1.00">
        <route edges="WE_1 WE_2"/>
    </vehicle>
    <vehicle id="411" depart="1.00">
        <route edges="WE_1 WE_2"/>
    </vehicle>
    <vehicle id="413" depart="1.00">
        <route edges="NS_1 EW_2"/>
    </vehicle>
    <vehicle id="419" depart="1.00">
        <route edges="SN_1 SN_2"/>
    </vehicle>
    <vehicle id="421" depart="1.00">
        <route edges="WE_1 WE_2"/>
    </vehicle>
    <vehicle id="422" depart="1.00">
        <route edges="EW_1 EW_2"/>
    </vehicle>
    <vehicle id="424" depart="1.00">
        <route edges="SN_1 WE_2"/>
    </vehicle>
    <vehicle id="425" depart="1.00">
        <route edges="EW_1 SN_2"/>
    </vehicle>
    <vehicle id="428" depart="1.00">
        <route edges="WE_1 WE_2"/>
    </vehicle>
    <vehicle id="429" depart="1.00">
        <route edges="EW_1 EW_2"/>
    </vehicle>
    <vehicle id="432" depart="1.00">
        <route edges="SN_1 SN_2"/>
    </vehicle>
    <vehicle id="434" depart="1.00">
        <route edges="SN_1 WE_2"/>
    </vehicle>
    <vehicle id="437" depart="1.00">
        <route edges="SN_1 WE_2"/>
    </vehicle>
    <vehicle id="439" depart="1.00">
        <route edges="NS_1 EW_2"/>
    </vehicle>
    <vehicle id="441" depart="1.00">
        <route edges="EW_1 EW_2"/>
    </vehicle>
    <vehicle id="442" depart="1.00">
        <route edges="SN_1 SN_2"/>
    </vehicle>
    <vehicle id="443" depart="1.00">
        <route edges="EW_1 EW_2"/>
    </vehicle>
    <vehicle id="444" depart="1.00">
        <route edges="WE_1 WE_2"/>
    </vehicle>
    <vehicle id="445" depart="1.00">
        <route edges="EW_1 EW_2"/>
    </vehicle>
    <vehicle id="446" depart="1.00">
        <route edges="NS_1 NS_2"/>
    </vehicle>
    <vehicle id="447" depart="1.00">
        <route edges="SN_1 SN_2"/>
    </vehicle>
    <vehicle id="448" depart="1.00">
        <route edges="EW_1 EW_2"/>
    </vehicle>
    <vehicle id="449" depart="1.00">
        <route edges="WE_1 NS_2"/>
    </vehicle>
    <vehicle id="452" depart="1.00">
        <route edges="SN_1 WE_2"/>
    </vehicle>
    <vehicle id="453" depart="1.00">
        <route edges="EW_1 EW_2"/>
    </vehicle>
    <vehicle id="455" depart="1.00">
        <route edges="EW_1 EW_2"/>
    </vehicle>
    <vehicle id="456" depart="1.00">
        <route edges="WE_1 WE_2"/>
    </vehicle>
    <vehicle id="459" depart="1.00">
        <route edges="SN_1 SN_2"/>
    </vehicle>
    <vehicle id="460" depart="1.00">
        <route edges="EW_1 EW_2"/>
    </vehicle>
    <vehicle id="461" depart="1.00">
        <route edges="WE_1 NS_2"/>
    </vehicle>
    <vehicle id="462" depart="1.00">
        <route edges="WE_1 NS_2"/>
    </vehicle>
    <vehicle id="464" depart="1.00">
        <route edges="EW_1 EW_2"/>
    </vehicle>
    <vehicle id="468" depart="1.00">
        <route edges="WE_1 WE_2"/>
    </vehicle>
    <vehicle id="469" depart="1.00">
        <route edges="EW_1 EW_2"/>
    </vehicle>
    <vehicle id="473" depart="1.00">
        <route edges="NS_1 EW_2"/>
    </vehicle>
    <vehicle id="474" depart="1.00">
        <route edges="SN_1 WE_2"/>
    </vehicle>
    <vehicle id="475" depart="1.00">
        <route edges="EW_1 EW_2"/>
    </vehicle>
    <vehicle id="477" depart="1.00">
        <route edges="WE_1 NS_2"/>
    </vehicle>
    <vehicle id="481" depart="1.00">
        <route edges="SN_1 WE_2"/>
    </vehicle>
    <vehicle id="482" depart="1.00">
        <route edges="SN_1 WE_2"/>
    </vehicle>
    <vehicle id="483" depart="1.00">
        <route edges="WE_1 WE_2"/>
    </vehicle>
    <vehicle id="484" depart="1.00">
        <route edges="NS_1 NS_2"/>
    </vehicle>
    <vehicle id="485" depart="1.00">
        <route edges="NS_1 NS_2"/>
    </vehicle>
    <vehicle id="486" depart="1.00">
        <route edges="NS_1 EW_2"/>
    </vehicle>
    <vehicle id="489" depart="1.00">
        <route edges="SN_1 WE_2"/>
    </vehicle>
    <vehicle id="491" depart="1.00">
        <route edges="NS_1 NS_2"/>
    </vehicle>
    <vehicle id="495" depart="1.00">
        <route edges="WE_1 WE_2"/>
    </vehicle>
    <vehicle id="499" depart="1.00">
        <route edges="EW_1 SN_2"/>
    </vehicle>
    <vehicle id="500" depart="1.00">
        <route edges="WE_1 NS_2"/>
    </vehicle>
    <vehicle id="501" depart="1.00">
        <route edges="SN_1 WE_2"/>
    </vehicle>
    <vehicle id="502" depart="1.00">
        <route edges="WE_1 WE_2"/>
    </vehicle>
    <vehicle id="503" depart="1.00">
        <route edges="EW_1 EW_2"/>
    </vehicle>
    <vehicle id="506" depart="1.00">
        <route edges="NS_1 EW_2"/>
    </vehicle>
    <vehicle id="507" depart="1.00">
        <route edges="WE_1 WE_2"/>
    </vehicle>
    <vehicle id="509" depart="1.00">
        <route edges="WE_1 WE_2"/>
    </vehicle>
    <vehicle id="517" depart="1.00">
        <route edges="EW_1 EW_2"/>
    </vehicle>
    <vehicle id="518" depart="1.00">
        <route edges="NS_1 EW_2"/>
    </vehicle>
    <vehicle id="521" depart="1.00">
        <route edges="SN_1 WE_2"/>
    </vehicle>
    <vehicle id="522" depart="1.00">
        <route edges="EW_1 SN_2"/>
    </vehicle>
    <vehicle id="528" depart="1.00">
        <route edges="EW_1 SN_2"/>
    </vehicle>
    <vehicle id="534" depart="1.00">
        <route edges="NS_1 EW_2"/>
    </vehicle>
    <vehicle id="535" depart="1.00">
        <route edges="NS_1 NS_2"/>
    </vehicle>
    <vehicle id="536" depart="1.00">
        <route edges="SN_1 WE_2"/>
    </vehicle>
    <vehicle id="541" depart="1.00">
        <route edges="SN_1 WE_2"/>
    </vehicle>
    <vehicle id="543" depart="1.00">
        <route edges="WE_1 NS_2"/>
    </vehicle>
    <vehicle id="544" depart="1.00">
        <route edges="NS_1 NS_2"/>
    </vehicle>
    <vehicle id="547" depart="1.00">
        <route edges="NS_1 NS_2"/>
    </vehicle>
    <vehicle id="548" depart="1.00">
        <route edges="WE_1 WE_2"/>
    </vehicle>
    <vehicle id="549" depart="1.00">
        <route edges="WE_1 NS_2"/>
    </vehicle>
    <vehicle id="550" depart="1.00">
        <route edges="WE_1 NS_2"/>
    </vehicle>
    <vehicle id="552" depart="1.00">
        <route edges="EW_1 SN_2"/>
    </vehicle>
    <vehicle id="553" depart="1.00">
        <route edges="NS_1 EW_2"/>
    </vehicle>
    <vehicle id="555" depart="1.00">
        <route edges="EW_1 EW_2"/>
    </vehicle>
    <vehicle id="556" depart="1.00">
        <route edges="SN_1 WE_2"/>
    </vehicle>
    <vehicle id="558" depart="1.00">
        <route edges="SN_1 SN_2"/>
    </vehicle>
    <vehicle id="559" depart="1.00">
        <route edges="SN_1 SN_2"/>
    </vehicle>
    <vehicle id="560" depart="1.00">
        <route edges="WE_1 WE_2"/>
    </vehicle>
    <vehicle id="565" depart="1.00">
        <route edges="EW_1 EW_2"/>
    </vehicle>
    <vehicle id="566" depart="1.00">
        <route edges="SN_1 SN_2"/>
    </vehicle>
    <vehicle id="567" depart="1.00">
        <route edges="SN_1 SN_2"/>
    </vehicle>
    <vehicle id="568" depart="1.00">
        <route edges="EW_1 EW_2"/>
    </vehicle>
    <vehicle id="572" depart="1.00">
        <route edges="SN_1 WE_2"/>
    </vehicle>
    <vehicle id="575" depart="1.00">
        <route edges="NS_1 EW_2"/>
    </vehicle>
    <vehicle id="576" depart="1.00">
        <route edges="NS_1 EW_2"/>
    </vehicle>
    <vehicle id="577" depart="1.00">
        <route edges="EW_1 SN_2"/>
    </vehicle>
    <vehicle id="579" depart="1.00">
        <route edges="EW_1 EW_2"/>
    </vehicle>
    <vehicle id="581" depart="1.00">
        <route edges="NS_1 EW_2"/>
    </vehicle>
    <vehicle id="584" depart="1.00">
        <route edges="NS_1 EW_2"/>
    </vehicle>
    <vehicle id="586" depart="1.00">
        <route edges="EW_1 SN_2"/>
    </vehicle>
    <vehicle id="588" depart="1.00">
        <route edges="EW_1 SN_2"/>
    </vehicle>
    <vehicle id="590" depart="1.00">
        <route edges="WE_1 WE_2"/>
    </vehicle>
    <vehicle id="591" depart="1.00">
        <route edges="EW_1 SN_2"/>
    </vehicle>
    <vehicle id="593" depart="1.00">
        <route edges="NS_1 NS_2"/>
    </vehicle>
    <vehicle id="594" depart="1.00">
        <route edges="EW_1 EW_2"/>
    </vehicle>
    <vehicle id="596" depart="1.00">
        <route edges="WE_1 WE_2"/>
    </vehicle>
    <vehicle id="597" depart="1.00">
        <route edges="WE_1 NS_2"/>
    </vehicle>
    <vehicle id="599" depart="1.00">
        <route edges="WE_1 WE_2"/>
    </vehicle>
    <vehicle id="600" depart="1.00">
        <route edges="NS_1 NS_2"/>
    </vehicle>
    <vehicle id="602" depart="1.00">
        <route edges="SN_1 SN_2"/>
    </vehicle>
    <vehicle id="603" depart="1.00">
        <route edges="SN_1 WE_2"/>
    </vehicle>
    <vehicle id="605" depart="1.00">
        <route edges="NS_1 NS_2"/>
    </vehicle>
    <vehicle id="609" depart="1.00">
        <route edges="NS_1 EW_2"/>
    </vehicle>
    <vehicle id="611" depart="1.00">
        <route edges="WE_1 NS_2"/>
    </vehicle>
    <vehicle id="616" depart="1.00">
        <route edges="SN_1 SN_2"/>
    </vehicle>
    <vehicle id="617" depart="1.00">
        <route edges="WE_1 WE_2"/>
    </vehicle>
    <vehicle id="619" depart="1.00">
        <route edges="WE_1 WE_2"/>
    </vehicle>
    <vehicle id="621" depart="1.00">
        <route edges="WE_1 NS_2"/>
    </vehicle>
    <vehicle id="626" depart="1.00">
        <route edges="WE_1 NS_2"/>
    </vehicle>
    <vehicle id="627" depart="1.00">
        <route edges="SN_1 SN_2"/>
    </vehicle>
    <vehicle id="631" depart="1.00">
        <route edges="NS_1 EW_2"/>
    </vehicle>
    <vehicle id="632" depart="1.00">
        <route edges="NS_1 NS_2"/>
    </vehicle>
    <vehicle id="633" depart="1.00">
        <route edges="EW_1 SN_2"/>
    </vehicle>
    <vehicle id="634" depart="1.00">
        <route edges="NS_1 EW_2"/>
    </vehicle>
    <vehicle id="636" depart="1.00">
        <route edges="WE_1 WE_2"/>
    </vehicle>
    <vehicle id="637" depart="1.00">
        <route edges="WE_1 NS_2"/>
    </vehicle>
    <vehicle id="638" depart="1.00">
        <route edges="WE_1 NS_2"/>
    </vehicle>
    <vehicle id="639" depart="1.00">
        <route edges="NS_1 EW_2"/>
    </vehicle>
    <vehicle id="640" depart="1.00">
        <route edges="EW_1 EW_2"/>
    </vehicle>
    <vehicle id="643" depart="1.00">
        <route edges="NS_1 NS_2"/>
    </vehicle>
    <vehicle id="645" depart="1.00">
        <route edges="EW_1 EW_2"/>
    </vehicle>
    <vehicle id="647" depart="1.00">
        <route edges="EW_1 EW_2"/>
    </vehicle>
    <vehicle id="649" depart="1.00">
        <route edges="WE_1 NS_2"/>
    </vehicle>
    <vehicle id="650" depart="1.00">
        <route edges="WE_1 WE_2"/>
    </vehicle>
    <vehicle id="653" depart="1.00">
        <route edges="WE_1 WE_2"/>
    </vehicle>
    <vehicle id="656" depart="1.00">
        <route edges="EW_1 SN_2"/>
    </vehicle>
    <vehicle id="658" depart="1.00">
        <route edges="WE_1 NS_2"/>
    </vehicle>
    <vehicle id="659" depart="1.00">
        <route edges="WE_1 NS_2"/>
    </vehicle>
    <vehicle id="662" depart="1.00">
        <route edges="EW_1 SN_2"/>
    </vehicle>
    <vehicle id="663" depart="1.00">
        <route edges="EW_1 SN_2"/>
    </vehicle>
    <vehicle id="667" depart="1.00">
        <route edges="EW_1 EW_2"/>
    </vehicle>
    <vehicle id="670" depart="1.00">
        <route edges="NS_1 NS_2"/>
    </vehicle>
    <vehicle id="674" depart="1.00">
        <route edges="NS_1 EW_2"/>
    </vehicle>
    <vehicle id="676" depart="1.00">
        <route edges="SN_1 SN_2"/>
    </vehicle>
    <vehicle id="677" depart="1.00">
        <route edges="SN_1 SN_2"/>
    </vehicle>
    <vehicle id="679" depart="1.00">
        <route edges="SN_1 WE_2"/>
    </vehicle>
    <vehicle id="680" depart="1.00">
        <route edges="WE_1 NS_2"/>
    </vehicle>
    <vehicle id="684" depart="1.00">
        <route edges="EW_1 EW_2"/>
    </vehicle>
    <vehicle id="685" depart="1.00">
        <route edges="SN_1 WE_2"/>
    </vehicle>
    <vehicle id="686" depart="1.00">
        <route edges="EW_1 SN_2"/>
    </vehicle>
    <vehicle id="689" depart="1.00">
        <route edges="EW_1 SN_2"/>
    </vehicle>
    <vehicle id="691" depart="1.00">
        <route edges="NS_1 EW_2"/>
    </vehicle>