<?xml version="1.0" encoding="UTF-8"?>

<!-- generated on 09/21/18 09:38:25 by Eclipse SUMO duarouter Version 1.0.0
<configuration xmlns:xsi="http://www.w3.org/2001/XMLSchema-instance" xsi:noNamespaceSchemaLocation="http://sumo.dlr.de/xsd/duarouterConfiguration.xsd">

    <input>
        <net-file value="littleriver.net.xml"/>
        <route-files value="trips.trips.xml"/>
    </input>

    <output>
        <output-file value="littleriver.rou.xml"/>
        <alternatives-output value="littleriver.rou.alt.xml"/>
    </output>

    <time>
        <begin value="0"/>
        <end value="3600"/>
    </time>

    <report>
        <no-warnings value="true"/>
        <ignore-errors value="true"/>
        <no-step-log value="true"/>
    </report>

</configuration>
-->

<routes xmlns:xsi="http://www.w3.org/2001/XMLSchema-instance" xsi:noNamespaceSchemaLocation="http://sumo.dlr.de/xsd/routes_file.xsd">
    <vehicle id="3" depart="3.00">
        <route edges="468510415#1 319330145#1"/>
    </vehicle>
    <vehicle id="4" depart="4.00">
        <route edges="468510415#1 468510417#1"/>
    </vehicle>
    <vehicle id="9" depart="9.00">
        <route edges="590842388#1 468510415#1 468510417#1"/>
    </vehicle>
    <vehicle id="10" depart="10.00">
        <route edges="590842388#1"/>
    </vehicle>
    <vehicle id="11" depart="11.00">
        <route edges="468510427#0 -468510415#1 -468510415#0 -590842388#0"/>
    </vehicle>
    <vehicle id="12" depart="12.00">
        <route edges="468510415#1 468510417#1"/>
    </vehicle>
    <vehicle id="15" depart="15.00">
        <route edges="590842388#0 590842388#1 468510415#1"/>
    </vehicle>
    <vehicle id="17" depart="17.00">
        <route edges="590842388#1"/>
    </vehicle>
    <vehicle id="18" depart="18.00">
        <route edges="-468510415#0"/>
    </vehicle>
    <vehicle id="22" depart="22.00">
        <route edges="-468510415#1 -468510415#0 -590842388#0"/>
    </vehicle>
    <vehicle id="23" depart="23.00">
        <route edges="468510427#0 -468510415#1 -468510415#0 -590842388#0"/>
    </vehicle>
    <vehicle id="24" depart="24.00">
        <route edges="-468510415#1 -468510415#0 -590842388#0"/>
    </vehicle>
    <vehicle id="29" depart="29.00">
        <route edges="-468510415#1"/>
    </vehicle>
    <vehicle id="31" depart="31.00">
        <route edges="590842388#1 468510415#1 468510417#1"/>
    </vehicle>
    <vehicle id="33" depart="33.00">
        <route edges="468510415#1"/>
    </vehicle>
    <vehicle id="34" depart="34.00">
        <route edges="590842388#1"/>
    </vehicle>
    <vehicle id="39" depart="39.00">
        <route edges="468510427#0 -468510415#1 -468510415#0"/>
    </vehicle>
    <vehicle id="40" depart="40.00">
        <route edges="-468510417#1 -468510415#1"/>
    </vehicle>
    <vehicle id="42" depart="42.00">
        <route edges="468510415#1 319330145#1"/>
    </vehicle>
    <vehicle id="43" depart="43.00">
        <route edges="590842388#0 590842388#1 468510415#1 319330145#1"/>
    </vehicle>
    <vehicle id="46" depart="46.00">
        <route edges="-468510417#1 -468510415#1"/>
    </vehicle>
    <vehicle id="47" depart="47.00">
        <route edges="-468510417#1 -gneE0"/>
    </vehicle>
    <vehicle id="48" depart="48.00">
        <route edges="-468510415#1"/>
    </vehicle>
    <vehicle id="51" depart="51.00">
        <route edges="-468510415#0"/>
    </vehicle>
    <vehicle id="54" depart="54.00">
        <route edges="468510415#1 -gneE0"/>
    </vehicle>
    <vehicle id="56" depart="56.00">
        <route edges="-468510415#0 -590842388#0"/>
    </vehicle>
    <vehicle id="58" depart="58.00">
        <route edges="468510415#1 468510417#1"/>
    </vehicle>
    <vehicle id="60" depart="60.00">
        <route edges="468510415#1 -gneE0"/>
    </vehicle>
    <vehicle id="61" depart="61.00">
        <route edges="gneE0 -468510415#1 -468510415#0 -590842388#0"/>
    </vehicle>
    <vehicle id="62" depart="62.00">
        <route edges="590842388#1 468510415#1 -gneE0"/>
    </vehicle>
    <vehicle id="63" depart="63.00">
        <route edges="468510415#1 319330145#1"/>
    </vehicle>
    <vehicle id="65" depart="65.00">
        <route edges="gneE0 468510417#1"/>
    </vehicle>
    <vehicle id="66" depart="66.00">
        <route edges="gneE0 -468510415#1"/>
    </vehicle>
    <vehicle id="69" depart="69.00">
        <route edges="-468510417#1 -468510415#1 -468510415#0"/>
    </vehicle>
    <vehicle id="70" depart="70.00">
        <route edges="-468510417#1 -468510415#1 -468510415#0 -590842388#0"/>
    </vehicle>
    <vehicle id="72" depart="72.00">
        <route edges="gneE0 319330145#1"/>
    </vehicle>
    <vehicle id="73" depart="73.00">
        <route edges="590842388#0 590842388#1 468510415#1"/>
    </vehicle>
    <vehicle id="74" depart="74.00">
        <route edges="590842388#1"/>
    </vehicle>
    <vehicle id="75" depart="75.00">
        <route edges="gneE0 -468510415#1 -468510415#0"/>
    </vehicle>
    <vehicle id="76" depart="76.00">
        <route edges="468510427#0 -gneE0"/>
    </vehicle>
    <vehicle id="77" depart="77.00">
        <route edges="590842388#1 468510415#1 468510417#1"/>
    </vehicle>
    <vehicle id="78" depart="78.00">
        <route edges="590842388#0 590842388#1 468510415#1 468510417#1"/>
    </vehicle>
    <vehicle id="80" depart="80.00">
        <route edges="468510427#0 -468510415#1"/>
    </vehicle>
    <vehicle id="81" depart="81.00">
        <route edges="590842388#1 468510415#1 319330145#1"/>
    </vehicle>
    <vehicle id="83" depart="83.00">
        <route edges="468510415#1"/>
    </vehicle>
    <vehicle id="84" depart="84.00">
        <route edges="-468510415#1 -468510415#0"/>
    </vehicle>
    <vehicle id="88" depart="88.00">
        <route edges="468510427#0 -468510415#1 -468510415#0"/>
    </vehicle>
    <vehicle id="91" depart="91.00">
        <route edges="-468510415#0"/>
    </vehicle>
    <vehicle id="97" depart="97.00">
        <route edges="590842388#1 468510415#1 -gneE0"/>
    </vehicle>
    <vehicle id="102" depart="102.00">
        <route edges="gneE0 319330145#1"/>
    </vehicle>
    <vehicle id="106" depart="106.00">
        <route edges="590842388#0 590842388#1 468510415#1 -gneE0"/>
    </vehicle>
    <vehicle id="107" depart="107.00">
        <route edges="468510427#0 -gneE0"/>
    </vehicle>
    <vehicle id="109" depart="109.00">
        <route edges="gneE0 468510417#1"/>
    </vehicle>
    <vehicle id="110" depart="110.00">
        <route edges="-468510415#1"/>
    </vehicle>
    <vehicle id="111" depart="111.00">
        <route edges="gneE0 468510417#1"/>
    </vehicle>
    <vehicle id="112" depart="112.00">
        <route edges="590842388#1"/>
    </vehicle>
    <vehicle id="114" depart="114.00">
        <route edges="590842388#0 590842388#1 468510415#1 319330145#1"/>
    </vehicle>
    <vehicle id="116" depart="116.00">
        <route edges="590842388#1 468510415#1 -gneE0"/>
    </vehicle>
    <vehicle id="119" depart="119.00">
        <route edges="590842388#0 590842388#1 468510415#1 468510417#1"/>
    </vehicle>
    <vehicle id="120" depart="120.00">
        <route edges="468510415#1 468510417#1"/>
    </vehicle>
    <vehicle id="123" depart="123.00">
        <route edges="-468510415#0 -590842388#0"/>
    </vehicle>
    <vehicle id="125" depart="125.00">
        <route edges="-468510417#1 -gneE0"/>
    </vehicle>
    <vehicle id="126" depart="126.00">
        <route edges="gneE0 -468510415#1"/>
    </vehicle>
    <vehicle id="128" depart="128.00">
        <route edges="468510415#1 319330145#1"/>
    </vehicle>
    <vehicle id="130" depart="130.00">
        <route edges="468510415#1 -gneE0"/>
    </vehicle>
    <vehicle id="131" depart="131.00">
        <route edges="468510415#1 -gneE0"/>
    </vehicle>
    <vehicle id="132" depart="132.00">
        <route edges="590842388#0 590842388#1 468510415#1 468510417#1"/>
    </vehicle>
    <vehicle id="133" depart="133.00">
        <route edges="590842388#1 468510415#1 319330145#1"/>
    </vehicle>
    <vehicle id="135" depart="135.00">
        <route edges="gneE0 -468510415#1 -468510415#0"/>
    </vehicle>
    <vehicle id="140" depart="140.00">
        <route edges="468510427#0 -gneE0"/>
    </vehicle>
    <vehicle id="143" depart="143.00">
        <route edges="590842388#1 468510415#1 468510417#1"/>
    </vehicle>
    <vehicle id="144" depart="144.00">
        <route edges="468510415#1"/>
    </vehicle>
    <vehicle id="146" depart="146.00">
        <route edges="590842388#1 468510415#1"/>
    </vehicle>
    <vehicle id="148" depart="148.00">
        <route edges="590842388#1"/>
    </vehicle>
    <vehicle id="151" depart="151.00">
        <route edges="gneE0 -468510415#1 -468510415#0"/>
    </vehicle>
    <vehicle id="152" depart="152.00">
        <route edges="468510415#1 -gneE0"/>
    </vehicle>
    <vehicle id="153" depart="153.00">
        <route edges="-468510415#1 -468510415#0 -590842388#0"/>
    </vehicle>
    <vehicle id="154" depart="154.00">
        <route edges="468510415#1"/>
    </vehicle>
    <vehicle id="160" depart="160.00">
        <route edges="-468510415#0"/>
    </vehicle>
    <vehicle id="161" depart="161.00">
        <route edges="590842388#0 590842388#1 468510415#1"/>
    </vehicle>
    <vehicle id="162" depart="162.00">
        <route edges="-468510417#1 319330145#1"/>
    </vehicle>
    <vehicle id="164" depart="164.00">
        <route edges="-468510417#1 319330145#1"/>
    </vehicle>
    <vehicle id="166" depart="166.00">
        <route edges="468510415#1 -gneE0"/>
    </vehicle>
    <vehicle id="167" depart="167.00">
        <route edges="590842388#1 468510415#1"/>
    </vehicle>
    <vehicle id="168" depart="168.00">
        <route edges="468510427#0 -468510415#1"/>
    </vehicle>
    <vehicle id="170" depart="170.00">
        <route edges="590842388#0 590842388#1 468510415#1 319330145#1"/>
    </vehicle>
    <vehicle id="172" depart="172.00">
        <route edges="468510427#0 -468510415#1"/>
    </vehicle>
    <vehicle id="173" depart="173.00">
        <route edges="-468510417#1 -468510415#1"/>
    </vehicle>
    <vehicle id="174" depart="174.00">
        <route edges="-468510415#0 -590842388#0"/>
    </vehicle>
    <vehicle id="175" depart="175.00">
        <route edges="-468510417#1 319330145#1"/>
    </vehicle>
    <vehicle id="176" depart="176.00">
        <route edges="590842388#1 468510415#1 -gneE0"/>
    </vehicle>
    <vehicle id="177" depart="177.00">
        <route edges="590842388#1 468510415#1 468510417#1"/>
    </vehicle>
    <vehicle id="178" depart="178.00">
        <route edges="468510427#0 -468510415#1"/>
    </vehicle>
    <vehicle id="179" depart="179.00">
        <route edges="590842388#1 468510415#1 319330145#1"/>
    </vehicle>
    <vehicle id="181" depart="181.00">
        <route edges="gneE0 -468510415#1 -468510415#0"/>
    </vehicle>
    <vehicle id="182" depart="182.00">
        <route edges="468510415#1 468510417#1"/>
    </vehicle>
    <vehicle id="183" depart="183.00">
        <route edges="gneE0 -468510415#1 -468510415#0 -590842388#0"/>
    </vehicle>
    <vehicle id="184" depart="184.00">
        <route edges="-468510415#1"/>
    </vehicle>
    <vehicle id="187" depart="187.00">
        <route edges="gneE0 -468510415#1"/>
    </vehicle>
    <vehicle id="188" depart="188.00">
        <route edges="-468510417#1 -gneE0"/>
    </vehicle>
    <vehicle id="190" depart="190.00">
        <route edges="590842388#0 590842388#1"/>
    </vehicle>
    <vehicle id="191" depart="191.00">
        <route edges="590842388#1 468510415#1 319330145#1"/>
    </vehicle>
    <vehicle id="192" depart="192.00">
        <route edges="590842388#1 468510415#1 319330145#1"/>
    </vehicle>
    <vehicle id="193" depart="193.00">
        <route edges="gneE0 468510417#1"/>
    </vehicle>
    <vehicle id="195" depart="195.00">
        <route edges="468510427#0 468510417#1"/>
    </vehicle>
    <vehicle id="196" depart="196.00">
        <route edges="468510427#0 -468510415#1"/>
    </vehicle>
    <vehicle id="197" depart="197.00">
        <route edges="-468510415#1 -468510415#0 -590842388#0"/>
    </vehicle>
    <vehicle id="199" depart="199.00">
        <route edges="468510415#1"/>
    </vehicle>
    <vehicle id="202" depart="202.00">
        <route edges="gneE0 -468510415#1 -468510415#0 -590842388#0"/>
    </vehicle>
    <vehicle id="204" depart="204.00">
        <route edges="-468510415#0 -590842388#0"/>
    </vehicle>
    <vehicle id="210" depart="210.00">
        <route edges="590842388#0 590842388#1 468510415#1 319330145#1"/>
    </vehicle>
    <vehicle id="211" depart="211.00">
        <route edges="gneE0 -468510415#1 -468510415#0"/>
    </vehicle>
    <vehicle id="212" depart="212.00">
        <route edges="gneE0 -468510415#1 -468510415#0 -590842388#0"/>
    </vehicle>
    <vehicle id="213" depart="213.00">
        <route edges="468510427#0 -468510415#1"/>
    </vehicle>
    <vehicle id="222" depart="222.00">
        <route edges="gneE0 319330145#1"/>
    </vehicle>
    <vehicle id="223" depart="223.00">
        <route edges="-468510415#0 -590842388#0"/>
    </vehicle>
    <vehicle id="224" depart="224.00">
        <route edges="590842388#0 590842388#1 468510415#1 468510417#1"/>
    </vehicle>
    <vehicle id="227" depart="227.00">
        <route edges="-468510415#0 -590842388#0"/>
    </vehicle>
    <vehicle id="228" depart="228.00">
        <route edges="-468510417#1 -gneE0"/>
    </vehicle>
    <vehicle id="231" depart="231.00">
        <route edges="-468510415#1"/>
    </vehicle>
    <vehicle id="238" depart="238.00">
        <route edges="gneE0 -468510415#1 -468510415#0"/>
    </vehicle>
    <vehicle id="239" depart="239.00">
        <route edges="468510415#1 319330145#1"/>
    </vehicle>
    <vehicle id="242" depart="242.00">
        <route edges="468510415#1 468510417#1"/>
    </vehicle>
    <vehicle id="243" depart="243.00">
        <route edges="-468510417#1 -468510415#1"/>
    </vehicle>
    <vehicle id="244" depart="244.00">
        <route edges="590842388#1 468510415#1 468510417#1"/>
    </vehicle>
    <vehicle id="245" depart="245.00">
        <route edges="468510415#1"/>
    </vehicle>
    <vehicle id="249" depart="249.00">
        <route edges="590842388#0 590842388#1"/>
    </vehicle>
    <vehicle id="251" depart="251.00">
        <route edges="468510427#0 -468510415#1"/>
    </vehicle>
    <vehicle id="252" depart="252.00">
        <route edges="gneE0 468510417#1"/>
    </vehicle>
    <vehicle id="253" depart="253.00">
        <route edges="-468510415#1 -468510415#0"/>
    </vehicle>
    <vehicle id="258" depart="258.00">
        <route edges="gneE0 -468510415#1 -468510415#0"/>
    </vehicle>
    <vehicle id="259" depart="259.00">
        <route edges="-468510417#1 -gneE0"/>
    </vehicle>
    <vehicle id="260" depart="260.00">
        <route edges="468510415#1 -gneE0"/>
    </vehicle>
    <vehicle id="261" depart="261.00">
        <route edges="gneE0 468510417#1"/>
    </vehicle>
    <vehicle id="262" depart="262.00">
        <route edges="590842388#0 590842388#1"/>
    </vehicle>
    <vehicle id="264" depart="264.00">
        <route edges="590842388#0 590842388#1 468510415#1 319330145#1"/>
    </vehicle>
    <vehicle id="266" depart="266.00">
        <route edges="468510427#0 -468510415#1 -468510415#0"/>
    </vehicle>
    <vehicle id="268" depart="268.00">
        <route edges="-468510417#1 -468510415#1"/>
    </vehicle>
    <vehicle id="269" depart="269.00">
        <route edges="468510427#0 -468510415#1 -468510415#0"/>
    </vehicle>
    <vehicle id="270" depart="270.00">
        <route edges="-468510415#1 -468510415#0 -590842388#0"/>
    </vehicle>
    <vehicle id="274" depart="274.00">
        <route edges="-468510417#1 -468510415#1 -468510415#0"/>
    </vehicle>
    <vehicle id="277" depart="277.00">
        <route edges="-468510415#1 -468510415#0"/>
    </vehicle>
    <vehicle id="280" depart="280.00">
        <route edges="gneE0 -468510415#1 -468510415#0 -590842388#0"/>
    </vehicle>
    <vehicle id="282" depart="282.00">
        <route edges="468510415#1 468510417#1"/>
    </vehicle>
    <vehicle id="287" depart="287.00">
        <route edges="468510415#1"/>
    </vehicle>
    <vehicle id="288" depart="288.00">
        <route edges="590842388#0 590842388#1 468510415#1 319330145#1"/>
    </vehicle>
    <vehicle id="289" depart="289.00">
        <route edges="-468510415#1 -468510415#0 -590842388#0"/>
    </vehicle>
    <vehicle id="292" depart="292.00">
        <route edges="468510415#1"/>
    </vehicle>
    <vehicle id="295" depart="295.00">
        <route edges="-468510417#1 -gneE0"/>
    </vehicle>
    <vehicle id="296" depart="296.00">
        <route edges="-468510415#1"/>
    </vehicle>
    <vehicle id="297" depart="297.00">
        <route edges="590842388#0 590842388#1 468510415#1 -gneE0"/>
    </vehicle>
    <vehicle id="299" depart="299.00">
        <route edges="468510415#1 -gneE0"/>
    </vehicle>
    <vehicle id="300" depart="300.00">
        <route edges="590842388#1 468510415#1 319330145#1"/>
    </vehicle>
    <vehicle id="301" depart="301.00">
        <route edges="468510427#0 468510417#1"/>
    </vehicle>
    <vehicle id="307" depart="307.00">
        <route edges="-468510417#1 -468510415#1 -468510415#0"/>
    </vehicle>
    <vehicle id="308" depart="308.00">
        <route edges="468510427#0 -468510415#1 -468510415#0"/>
    </vehicle>
    <vehicle id="309" depart="309.00">
        <route edges="gneE0 -468510415#1 -468510415#0 -590842388#0"/>
    </vehicle>
    <vehicle id="310" depart="310.00">
        <route edges="468510427#0 -468510415#1 -468510415#0"/>
    </vehicle>
    <vehicle id="312" depart="312.00">
        <route edges="590842388#0 590842388#1 468510415#1 319330145#1"/>
    </vehicle>
    <vehicle id="314" depart="314.00">
        <route edges="-468510415#1"/>
    </vehicle>
    <vehicle id="317" depart="317.00">
        <route edges="590842388#0 590842388#1"/>
    </vehicle>
    <vehicle id="318" depart="318.00">
        <route edges="590842388#0 590842388#1 468510415#1 468510417#1"/>
    </vehicle>
    <vehicle id="320" depart="320.00">
        <route edges="-468510415#1"/>
    </vehicle>
    <vehicle id="322" depart="322.00">
        <route edges="-468510417#1 -468510415#1 -468510415#0 -590842388#0"/>
    </vehicle>
    <vehicle id="324" depart="324.00">
        <route edges="-468510417#1 -gneE0"/>
    </vehicle>
    <vehicle id="325" depart="325.00">
        <route edges="468510427#0 -gneE0"/>
    </vehicle>
    <vehicle id="331" depart="331.00">
        <route edges="-468510415#1"/>
    </vehicle>
    <vehicle id="333" depart="333.00">
        <route edges="468510415#1 319330145#1"/>
    </vehicle>
    <vehicle id="334" depart="334.00">
        <route edges="590842388#1"/>
    </vehicle>
    <vehicle id="336" depart="336.00">
        <route edges="-468510415#1 -468510415#0"/>
    </vehicle>
    <vehicle id="340" depart="340.00">
        <route edges="gneE0 -468510415#1"/>
    </vehicle>
    <vehicle id="341" depart="341.00">
        <route edges="590842388#0 590842388#1 468510415#1 468510417#1"/>
    </vehicle>
    <vehicle id="344" depart="344.00">
        <route edges="-468510417#1 -gneE0"/>
    </vehicle>
    <vehicle id="345" depart="345.00">
        <route edges="gneE0 468510417#1"/>
    </vehicle>
    <vehicle id="346" depart="346.00">
        <route edges="468510415#1 319330145#1"/>
    </vehicle>
    <vehicle id="349" depart="349.00">
        <route edges="468510427#0 -468510415#1 -468510415#0"/>
    </vehicle>
    <vehicle id="350" depart="350.00">
        <route edges="-468510415#1"/>
    </vehicle>
    <vehicle id="352" depart="352.00">
        <route edges="590842388#0 590842388#1 468510415#1 -gneE0"/>
    </vehicle>
    <vehicle id="356" depart="356.00">
        <route edges="gneE0 468510417#1"/>
    </vehicle>
    <vehicle id="360" depart="360.00">
        <route edges="468510427#0 468510417#1"/>
    </vehicle>
    <vehicle id="361" depart="361.00">
        <route edges="gneE0 -468510415#1 -468510415#0"/>
    </vehicle>
    <vehicle id="364" depart="364.00">
        <route edges="468510415#1 319330145#1"/>
    </vehicle>
    <vehicle id="365" depart="365.00">
        <route edges="468510427#0 -468510415#1 -468510415#0 -590842388#0"/>
    </vehicle>
    <vehicle id="366" depart="366.00">
        <route edges="590842388#1 468510415#1 468510417#1"/>
    </vehicle>
    <vehicle id="367" depart="367.00">
        <route edges="468510427#0 -gneE0"/>
    </vehicle>
    <vehicle id="368" depart="368.00">
        <route edges="-468510417#1 -468510415#1 -468510415#0"/>
    </vehicle>
    <vehicle id="371" depart="371.00">
        <route edges="590842388#1"/>
    </vehicle>
    <vehicle id="376" depart="376.00">
        <route edges="590842388#1 468510415#1 468510417#1"/>
    </vehicle>
    <vehicle id="379" depart="379.00">
        <route edges="590842388#1 468510415#1 319330145#1"/>
    </vehicle>
    <vehicle id="380" depart="380.00">
        <route edges="gneE0 -468510415#1"/>
    </vehicle>
    <vehicle id="381" depart="381.00">
        <route edges="-468510417#1 -468510415#1"/>
    </vehicle>
    <vehicle id="384" depart="384.00">
        <route edges="gneE0 -468510415#1 -468510415#0 -590842388#0"/>
    </vehicle>
    <vehicle id="386" depart="386.00">
        <route edges="590842388#1"/>
    </vehicle>
    <vehicle id="388" depart="388.00">
        <route edges="-468510415#1 -468510415#0 -590842388#0"/>
    </vehicle>
    <vehicle id="391" depart="391.00">
        <route edges="590842388#1 468510415#1 -gneE0"/>
    </vehicle>
    <vehicle id="394" depart="394.00">
        <route edges="-468510415#1 -468510415#0"/>
    </vehicle>
    <vehicle id="395" depart="395.00">
        <route edges="590842388#1"/>
    </vehicle>
    <vehicle id="396" depart="396.00">
        <route edges="468510427#0 468510417#1"/>
    </vehicle>
    <vehicle id="397" depart="397.00">
        <route edges="gneE0 319330145#1"/>
    </vehicle>
    <vehicle id="398" depart="398.00">
        <route edges="-468510417#1 -468510415#1 -468510415#0 -590842388#0"/>
    </vehicle>
    <vehicle id="399" depart="399.00">
        <route edges="468510427#0 -468510415#1 -468510415#0 -590842388#0"/>
    </vehicle>
    <vehicle id="401" depart="401.00">
        <route edges="590842388#0 590842388#1 468510415#1 -gneE0"/>
    </vehicle>
    <vehicle id="405" depart="405.00">
        <route edges="-468510415#1"/>
    </vehicle>
    <vehicle id="407" depart="407.00">
        <route edges="gneE0 468510417#1"/>
    </vehicle>
    <vehicle id="410" depart="410.00">
        <route edges="-468510417#1 -468510415#1 -468510415#0"/>
    </vehicle>
    <vehicle id="417" depart="417.00">
        <route edges="468510427#0 -468510415#1 -468510415#0"/>
    </vehicle>
    <vehicle id="418" depart="418.00">
        <route edges="590842388#0 590842388#1 468510415#1 468510417#1"/>
    </vehicle>
    <vehicle id="420" depart="420.00">
        <route edges="-468510415#1"/>
    </vehicle>
    <vehicle id="421" depart="421.00">
        <route edges="590842388#1 468510415#1 319330145#1"/>
    </vehicle>
    <vehicle id="423" depart="423.00">
        <route edges="590842388#1 468510415#1 -gneE0"/>
    </vehicle>
    <vehicle id="425" depart="425.00">
        <route edges="590842388#1 468510415#1 -gneE0"/>
    </vehicle>
    <vehicle id="427" depart="427.00">
        <route edges="590842388#1 468510415#1 -gneE0"/>
    </vehicle>
    <vehicle id="428" depart="428.00">
        <route edges="468510427#0 -468510415#1 -468510415#0"/>
    </vehicle>
    <vehicle id="431" depart="431.00">
        <route edges="-468510417#1 -468510415#1 -468510415#0 -590842388#0"/>
    </vehicle>
    <vehicle id="434" depart="434.00">
        <route edges="590842388#0 590842388#1 468510415#1 468510417#1"/>
    </vehicle>
    <vehicle id="436" depart="436.00">
        <route edges="590842388#1 468510415#1 -gneE0"/>
    </vehicle>
    <vehicle id="438" depart="438.00">
        <route edges="gneE0 468510417#1"/>
    </vehicle>
    <vehicle id="440" depart="440.00">
        <route edges="590842388#1 468510415#1"/>
    </vehicle>
    <vehicle id="443" depart="443.00">
        <route edges="468510415#1 468510417#1"/>
    </vehicle>
    <vehicle id="444" depart="444.00">
        <route edges="468510427#0 -gneE0"/>
    </vehicle>
    <vehicle id="446" depart="446.00">
        <route edges="590842388#1"/>
    </vehicle>
    <vehicle id="447" depart="447.00">
        <route edges="gneE0 319330145#1"/>
    </vehicle>
    <vehicle id="449" depart="449.00">
        <route edges="gneE0 -468510415#1 -468510415#0 -590842388#0"/>
    </vehicle>
    <vehicle id="451" depart="451.00">
        <route edges="468510427#0 -468510415#1"/>
    </vehicle>
    <vehicle id="454" depart="454.00">
        <route edges="590842388#0 590842388#1 468510415#1"/>
    </vehicle>
    <vehicle id="455" depart="455.00">
        <route edges="468510427#0 -468510415#1 -468510415#0"/>
    </vehicle>
    <vehicle id="457" depart="457.00">
        <route edges="gneE0 468510417#1"/>
    </vehicle>
    <vehicle id="461" depart="461.00">
        <route edges="468510427#0 468510417#1"/>
    </vehicle>
    <vehicle id="464" depart="464.00">
        <route edges="590842388#0 590842388#1 468510415#1"/>
    </vehicle>
    <vehicle id="465" depart="465.00">
        <route edges="gneE0 -468510415#1 -468510415#0 -590842388#0"/>
    </vehicle>
    <vehicle id="466" depart="466.00">
        <route edges="468510427#0 -468510415#1"/>
    </vehicle>
    <vehicle id="467" depart="467.00">
        <route edges="468510427#0 -468510415#1 -468510415#0"/>
    </vehicle>
    <vehicle id="468" depart="468.00">
        <route edges="-468510417#1 -468510415#1 -468510415#0"/>
    </vehicle>
    <vehicle id="469" depart="469.00">
        <route edges="-468510415#0 -590842388#0"/>
    </vehicle>
    <vehicle id="470" depart="470.00">
        <route edges="-468510415#1 -468510415#0"/>
    </vehicle>
    <vehicle id="471" depart="471.00">
        <route edges="590842388#0 590842388#1"/>
    </vehicle>
    <vehicle id="473" depart="473.00">
        <route edges="590842388#1"/>
    </vehicle>
    <vehicle id="478" depart="478.00">
        <route edges="-468510415#1 -468510415#0 -590842388#0"/>
    </vehicle>
    <vehicle id="480" depart="480.00">
        <route edges="-468510417#1 319330145#1"/>
    </vehicle>
    <vehicle id="485" depart="485.00">
        <route edges="gneE0 -468510415#1 -468510415#0 -590842388#0"/>
    </vehicle>
    <vehicle id="488" depart="488.00">
        <route edges="-468510417#1 -468510415#1 -468510415#0 -590842388#0"/>
    </vehicle>
    <vehicle id="491" depart="491.00">
        <route edges="468510427#0 -468510415#1 -468510415#0"/>
    </vehicle>
    <vehicle id="496" depart="496.00">
        <route edges="590842388#1 468510415#1 319330145#1"/>
    </vehicle>
    <vehicle id="497" depart="497.00">
        <route edges="-468510415#0 -590842388#0"/>
    </vehicle>
    <vehicle id="500" depart="500.00">
        <route edges="468510415#1 319330145#1"/>
    </vehicle>
    <vehicle id="501" depart="501.00">
        <route edges="468510427#0 -468510415#1 -468510415#0 -590842388#0"/>
    </vehicle>
    <vehicle id="504" depart="504.00">
        <route edges="590842388#0 590842388#1 468510415#1 -gneE0"/>
    </vehicle>
    <vehicle id="505" depart="505.00">
        <route edges="-468510417#1 -468510415#1 -468510415#0"/>
    </vehicle>
    <vehicle id="507" depart="507.00">
        <route edges="468510415#1 -gneE0"/>
    </vehicle>
    <vehicle id="510" depart="510.00">
        <route edges="468510427#0 -gneE0"/>
    </vehicle>
    <vehicle id="511" depart="511.00">
        <route edges="468510427#0 -gneE0"/>
    </vehicle>
    <vehicle id="514" depart="514.00">
        <route edges="-468510417#1 -468510415#1"/>
    </vehicle>
    <vehicle id="517" depart="517.00">
        <route edges="468510427#0 -468510415#1"/>
    </vehicle>
    <vehicle id="519" depart="519.00">
        <route edges="468510415#1 468510417#1"/>
    </vehicle>
    <vehicle id="521" depart="521.00">
        <route edges="590842388#0 590842388#1 468510415#1 319330145#1"/>
    </vehicle>
    <vehicle id="522" depart="522.00">
        <route edges="-468510417#1 -468510415#1 -468510415#0 -590842388#0"/>
    </vehicle>
    <vehicle id="524" depart="524.00">
        <route edges="468510415#1 468510417#1"/>
    </vehicle>
    <vehicle id="525" depart="525.00">
        <route edges="gneE0 -468510415#1"/>
    </vehicle>
    <vehicle id="526" depart="526.00">
        <route edges="468510415#1 319330145#1"/>
    </vehicle>
    <vehicle id="527" depart="527.00">
        <route edges="468510415#1 -gneE0"/>
    </vehicle>
    <vehicle id="528" depart="528.00">
        <route edges="-468510417#1 -468510415#1 -468510415#0 -590842388#0"/>
    </vehicle>
    <vehicle id="537" depart="537.00">
        <route edges="468510415#1"/>
    </vehicle>
    <vehicle id="539" depart="539.00">
        <route edges="468510415#1"/>
    </vehicle>
    <vehicle id="542" depart="542.00">
        <route edges="-468510417#1 -468510415#1"/>
    </vehicle>
    <vehicle id="543" depart="543.00">
        <route edges="590842388#1 468510415#1 468510417#1"/>
    </vehicle>
    <vehicle id="546" depart="546.00">
        <route edges="-468510415#1 -468510415#0"/>
    </vehicle>
    <vehicle id="551" depart="551.00">
        <route edges="590842388#0 590842388#1 468510415#1 -gneE0"/>
    </vehicle>
    <vehicle id="553" depart="553.00">
        <route edges="468510415#1 -gneE0"/>
    </vehicle>
    <vehicle id="554" depart="554.00">
        <route edges="-468510415#0 -590842388#0"/>
    </vehicle>
    <vehicle id="556" depart="556.00">
        <route edges="gneE0 468510417#1"/>
    </vehicle>
    <vehicle id="557" depart="557.00">
        <route edges="468510427#0 -468510415#1"/>
    </vehicle>
    <vehicle id="559" depart="559.00">