<?xml version="1.0" encoding="UTF-8"?>

<!-- generated on 09/28/18 09:12:49 by Eclipse SUMO duarouter Version 1.0.0
<configuration xmlns:xsi="http://www.w3.org/2001/XMLSchema-instance" xsi:noNamespaceSchemaLocation="http://sumo.dlr.de/xsd/duarouterConfiguration.xsd">

    <input>
        <net-file value="osm.net.xml"/>
        <route-files value="osm.passenger.trips.xml"/>
    </input>

    <output>
        <output-file value="osm.passenger.rou.xml"/>
        <alternatives-output value="osm.passenger.rou.alt.xml"/>
    </output>

    <time>
        <begin value="0"/>
        <end value="3600.0"/>
    </time>

    <report>
        <no-warnings value="true"/>
        <ignore-errors value="true"/>
        <no-step-log value="true"/>
    </report>

</configuration>
-->

<routes xmlns:xsi="http://www.w3.org/2001/XMLSchema-instance" xsi:noNamespaceSchemaLocation="http://sumo.dlr.de/xsd/routes_file.xsd">
    <vType id="veh_passenger" vClass="passenger"/>
    <vehicle id="veh0" type="veh_passenger" depart="0.00" departLane="best">
        <route edges="5677037#10 5677037#11 34593472#4 34593472#5 5679708#6 5679708#7 34287042#7 34287042#8 34287042#9 34287042#10 34287042#11 227074781#6 227074781#7 227074781#8 227074781#9 227074781#10 227074781#11 227074781#12 227074781#13 227074781#14 227074781#15 5680159#6 -219964428#3"/>
    </vehicle>
    <vehicle id="veh1" type="veh_passenger" depart="2.60" departLane="best">
        <route edges="221777109#0 221777109#1 221777109#2 221777109#3 221777109#4 221777109#5 221777109#6 221777109#7 221777109#8 221777109#9 221777109#10 221777109#11 221777109#12 221777109#13 221777109#14 221777109#15 221777109#16 221777109#17 5680159#3 221585914#2 221585914#3"/>
    </vehicle>
    <vehicle id="veh2" type="veh_passenger" depart="5.20" departLane="best">
        <route edges="5678442#11 432552981#0 432552981#1 432552974 432552978 432552966#0 432552966#1 432552966#2 432552966#3 221696386#3 221696386#4 221696386#5 221696386#6 221696386#7 221696386#8 221696386#9 497257926#0 5677926#1"/>
    </vehicle>
    <vehicle id="veh3" type="veh_passenger" depart="7.79" departLane="best">
        <route edges="5680703#6 495491356#1 495491356#2 495491356#3 5676994#6 5676994#7 5676994#8 5676994#9 5676994#10 5676994#11 -432552978 -432552974 -432552981#1 -432552981#0 -432552980#1 -432552980#0 -432552979#1 -432552979#0 -432552982 -432552975"/>
    </vehicle>
    <vehicle id="veh4" type="veh_passenger" depart="10.39" departLane="best">
        <route edges="350687715#1 -350687715#1 -350687715#0 221688254 -587067529#1 -587067529#0 -5679171#12 -5679171#11 -5679171#10 -5679171#9 -5679171#8 -5679171#7 -5679171#6 -5679171#5 -5679171#4 -219964428#6"/>
    </vehicle>
    <vehicle id="veh5" type="veh_passenger" depart="12.99" departLane="best">
        <route edges="221585914#0 221585914#1 221585914#2 221585914#3 221585914#4 221585914#5 221585914#6 221585914#7 221585914#8 221585914#9 221585914#10 221585914#11 221585914#12 221585914#13 5680742#7 5680742#8 5680742#9 5680742#10 5677037#11 5677037#12 5677037#13 46865765#1 46865765#2 46865765#3 46865765#4"/>
    </vehicle>
    <vehicle id="veh6" type="veh_passenger" depart="15.59" departLane="best">
        <route edges="-222246544#1 -222246544#0 -432552970#1 -432552970#0 -222247159 -432552966#3 -432552966#2 -432552966#1 -432552966#0 5676994#12 5676994#13 5676994#14 221696381#0 221696381#1 221446578#9"/>
    </vehicle>
    <vehicle id="veh7" type="veh_passenger" depart="18.19" departLane="best">
        <route edges="5677037#2 5679171#11 5679171#12 587067529#0 587067529#1 222246285#0 222246285#1 222246285#2 221696386#0 221696386#1 221696386#2 221696386#3 221696386#4 221696386#5 221696386#6 221696386#7 495491356#3"/>
    </vehicle>
    <vehicle id="veh8" type="veh_passenger" depart="20.79" departLane="best">
        <route edges="221585914#10 432552979#0 432552979#1 432552980#0 432552980#1 432552981#0 432552981#1 432552974 432552978 5676994#12 5676994#13 5676994#14 -587067528 587067527#0 587067527#1 587067527#2 23113651#0 5676884#1"/>
    </vehicle>
    <vehicle id="veh9" type="veh_passenger" depart="23.38" departLane="best">
        <route edges="5679708#10 5679708#11 37434658#7 37434658#8 -587067528 221696386#0 221696386#1 221696386#2 221696386#3 221696386#4 5680742#14 5680742#15 587067520#2 -148285572#10"/>
    </vehicle>
    <vehicle id="veh10" type="veh_passenger" depart="25.98" departLane="best">
        <route edges="5679708#0 5679708#1 51980526#2 51980526#3 51980526#4 46863673#0 46863673#1 46863673#2 46863673#3 497257926#0 497257926#1 497257926#2 497257926#3 5678147#0 5678147#1 5678147#2"/>
    </vehicle>
    <vehicle id="veh11" type="veh_passenger" depart="28.58" departLane="best">
        <route edges="227074781#0 227074781#1 227074781#2 227074781#3 227074781#4 5680742#3 5680742#4 5680742#5 5680742#6 5680742#7 5680742#8 5680742#9 5680742#10 5680742#11 5680742#12 5676994#10 5676994#11 5676994#12 5676994#13 5676994#14 -587067528"/>
    </vehicle>
    <vehicle id="veh12" type="veh_passenger" depart="31.18" departLane="best">
        <route edges="5681383#4 5681383#5 5681383#6 5679708#3 5679708#4 5679708#5 5679708#6 5679708#7 5679708#8 5679708#9 5679708#10 5679708#11 5679708#12 5679708#13 5679708#14 5679708#15 5679708#16 227064551#0 227064551#1"/>
    </vehicle>
    <vehicle id="veh13" type="veh_passenger" depart="33.78" departLane="best">
        <route edges="-432552979#0 432552979#0 432552979#1 432552980#0 432552980#1 432552981#0 -432552981#0"/>
    </vehicle>
    <vehicle id="veh14" type="veh_passenger" depart="36.38" departLane="best">
        <route edges="5679875#1 221696380#1 -350687715#1 -350687715#0 221688254 222246285#0 222246285#1 222246285#2 221696386#0 221696386#1 221696386#2 221696386#3 221696386#4 221696386#5 221696386#6 221696386#7 495491356#3 5676994#6"/>
    </vehicle>
    <vehicle id="veh15" type="veh_passenger" depart="38.97" departLane="best">
        <route edges="5679708#0 5679708#1 5679708#2 5679708#3 5679708#4 5679708#5 5679708#6 5679708#7 34287042#7 5678442#13"/>
    </vehicle>
    <vehicle id="veh16" type="veh_passenger" depart="41.57" departLane="best">
        <route edges="489437292#1 5678215#3 5678215#4 5678215#5 5678215#6 5678215#7 5678215#8 5676994#13 5676994#14 221696381#0 221696381#1 221446578#9 222246282#0 222246282#1 222246542#5 587355756 -221696380#0 -587067526#2 -587067526#1 587067526#1"/>
    </vehicle>
    <vehicle id="veh17" type="veh_passenger" depart="44.17" departLane="best">
        <route edges="34287042#1 34287042#2 34287042#3 34287042#4 5676994#11 5676994#12 5676994#13 5676994#14 221696381#0 221696381#1 221696381#2 497256110#0 497256110#1"/>
    </vehicle>
    <vehicle id="veh18" type="veh_passenger" depart="46.77" departLane="best">
        <route edges="5679708#8 432552974 5677037#9 5677037#10 5677037#11 5677037#12 5677037#13 5677037#14 5677037#15"/>
    </vehicle>
    <vehicle id="veh19" type="veh_passenger" depart="49.37" departLane="best">
        <route edges="5680159#3 221585914#2 221585914#3 221585914#4 5679171#7 5679171#8 5679171#9 5679171#10 5679171#11 5679171#12 497256110#0 5680992#1 5675264"/>
    </vehicle>
    <vehicle id="veh20" type="veh_passenger" depart="51.97" departLane="best">
        <route edges="5678215#7 5677037#8 -432552974 -432552981#1 -432552981#0 -432552980#1 -432552980#0 -432552979#1 -432552979#0 -432552982 -432552975 -227074781#6 -227074781#5 -227074781#4 -227074781#3 -227074781#2 -227074781#1 -227074781#0"/>
    </vehicle>
    <vehicle id="veh21" type="veh_passenger" depart="54.56" departLane="best">
        <route edges="221585914#15 5679790#1 221777109#5 221777109#6 221777109#7 221777109#8 221777109#9"/>
    </vehicle>
    <vehicle id="veh22" type="veh_passenger" depart="57.16" departLane="best">
        <route edges="-432552966#1 -432552966#0 5676994#12 5676994#13 5677430#3 5677430#4 5677430#5 5677430#6 5677430#7 221585914#9"/>
    </vehicle>
    <vehicle id="veh23" type="veh_passenger" depart="59.76" departLane="best">
        <route edges="-432552982 432552982 221585914#11 221585914#12 221585914#13 221585914#14 221585914#15 5679790#1 5679790#2 5678442#16 5678442#17 5678442#18 5678442#19 5679892#3 221777109#1 221777109#2"/>
    </vehicle>
    <vehicle id="veh24" type="veh_passenger" depart="62.36" departLane="best">
        <route edges="5677037#0 5677037#1 5677037#2 -5679171#10 -5679171#9 -5679171#8 -5679171#7 -5679171#6 -5679171#5 -227074781#12 -227074781#11 -227074781#10 -227074781#9 -227074781#8 -227074781#7 -227074781#6 227074781#6"/>
    </vehicle>
    <vehicle id="veh25" type="veh_passenger" depart="64.96" departLane="best">
        <route edges="227074781#9 -227074781#9 -227074781#8 -227074781#7 -227074781#6 -227074781#5 5680742#3 5680742#4 5680742#5 5680742#6 221585914#14 221585914#15"/>
    </vehicle>
    <vehicle id="veh26" type="veh_passenger" depart="67.56" departLane="best">
        <route edges="221696386#7 495491356#3 46865765#0 46865765#1 46865765#2 46865765#3 46865765#4 46865765#5 46865765#6 46865765#7 46865765#8 221585914#17 5681383#10 5681383#11 5681383#12"/>
    </vehicle>
    <vehicle id="veh27" type="veh_passenger" depart="70.15" departLane="best">
        <route edges="5677037#16 5679892#1 5679708#1 51980526#2 51980526#3 51980526#4 5676994#4 5676994#5 5676994#6 5676994#7 5676994#8 5676994#9"/>
    </vehicle>
    <vehicle id="veh28" type="veh_passenger" depart="72.75" departLane="best">
        <route edges="219964428#10 219964428#11 219964428#12 432552968 432552975 432552982 432552979#0 432552979#1 432552980#0 432552980#1 5678442#12"/>
    </vehicle>
    <vehicle id="veh29" type="veh_passenger" depart="75.35" departLane="best">
        <route edges="219964428#0 219964428#3 219964428#4 219964428#5 219964428#6 5679171#4 5679171#5 5679171#6 5679171#7 5679171#8 5679171#9 5679171#10 5679171#11 5679171#12 587067529#0 587067529#1 222246285#0 222246282#0 222246282#1 222246542#5 587355756 -221696380#0 -587067526#2 5676884#0 23113651#1 23113651#2"/>
    </vehicle>
    <vehicle id="veh30" type="veh_passenger" depart="77.95" departLane="best">
        <route edges="587067526#2 221696379 515885147#0 5677430#0"/>
    </vehicle>
    <vehicle id="veh31" type="veh_passenger" depart="80.55" departLane="best">
        <route edges="495491356#3 5676994#6 5676994#7 5676994#8 5676994#9 5676994#10 5676994#11 5676994#12 5676994#13 5676994#14 221696381#0 221696381#1 221696381#2 587067529#0 5678025 5678026"/>
    </vehicle>
    <vehicle id="veh32" type="veh_passenger" depart="83.14" departLane="best">
        <route edges="5679790#2 5678442#16 46865765#7 221777109#4 221777109#5 221777109#6 221777109#7 221777109#8 221777109#9 221777109#10 221777109#11 221777109#12 5680442#7 5680442#8 5680442#9 227074781#11 227074781#12 5679171#5"/>
    </vehicle>
    <vehicle id="veh33" type="veh_passenger" depart="85.74" departLane="best">
        <route edges="221585914#15 221585914#16 46865765#9 5676234#3 5676234#4 5676234#5 489437291 489437292#0 489437292#1 489437292#2 489437292#3 489437292#4 5680442#9 5680442#10 -219964428#8"/>
    </vehicle>
    <vehicle id="veh34" type="veh_passenger" depart="88.34" departLane="best">
        <route edges="222246542#0 222246542#1 5677430#1 5677430#2 5677430#3 5677430#4 5677430#5 5677430#6 221777109#11"/>
    </vehicle>
    <vehicle id="veh35" type="veh_passenger" depart="90.94" departLane="best">
        <route edges="221446578#9 222246285#1 222246285#2 221696386#0 221696386#1 221696386#2 221696386#3 221696386#4 221696386#5 221696386#6 221696386#7 221696386#8 5681383#0 5681383#1 5681383#2 5681383#3"/>
    </vehicle>
    <vehicle id="veh36" type="veh_passenger" depart="93.54" departLane="best">
        <route edges="5680442#5 5678442#6 37434658#6 37434658#7 37434658#8 -587067528 587067527#0 222246542#3 222246542#4"/>
    </vehicle>
    <vehicle id="veh37" type="veh_passenger" depart="96.14" departLane="best">
        <route edges="5677037#6 5677037#7 5677037#8 -432552974 -432552981#1 -432552981#0 -432552980#1 -432552980#0 -432552979#1 -432552979#0 -432552982 -432552975 -227074781#6 34287042#12 34287042#13"/>
    </vehicle>
    <vehicle id="veh38" type="veh_passenger" depart="98.73" departLane="best">
        <route edges="5680742#3 5680742#4 5680742#5 5680742#6 5680742#7 5680742#8 5680742#9 5680742#10 5680742#11 5680742#12 5680742#13 221696386#5 221696386#6 5681568#2 5681568#3 222246543#1 222246543#2 222246543#3 222246543#4 420626018"/>
    </vehicle>
    <vehicle id="veh39" type="veh_passenger" depart="101.33" departLane="best">
        <route edges="221696386#6 221696386#7 221696386#8 221696386#9 221696386#10"/>
    </vehicle>
    <vehicle id="veh41" type="veh_passenger" depart="106.53" departLane="best">
        <route edges="34593472#10 5676234#5 5680742#4 5680742#5 5680742#6 221585914#14 221585914#15 221585914#16 221585914#17 221585914#18 221585914#19"/>
    </vehicle>
    <vehicle id="veh42" type="veh_passenger" depart="109.13" departLane="best">
        <route edges="587067529#1 222246285#0 222246285#1 222246285#2 221696386#0 221696386#1 221696386#2 221696386#3 221696386#4 221696386#5 221696386#6 221696386#7 495491356#3 46865765#0 46865765#1 46865765#2 46865765#3 46865765#4 46865765#5 46865765#6 46865765#7"/>
    </vehicle>
    <vehicle id="veh43" type="veh_passenger" depart="111.73" departLane="best">
        <route edges="-432552978 -432552974 -432552981#1 -432552981#0 -432552980#1 -432552980#0 -432552979#1 -432552979#0 -432552982 -432552975 -227074781#6 -227074781#5 -227074781#4 -227074781#3 -227074781#2 -227074781#1"/>
    </vehicle>
    <vehicle id="veh44" type="veh_passenger" depart="114.32" departLane="best">
        <route edges="-5678026 5680992#0 5680992#1 5680992#2 5677037#2 5677037#3 5677037#4 5677037#5 5677037#6 5677037#7 5677037#8 5677037#9 5677037#10 5677037#11 5677037#12 5677037#13 5677037#14 5677037#15 5677037#16 5677037#17"/>
    </vehicle>
    <vehicle id="veh45" type="veh_passenger" depart="116.92" departLane="best">
        <route edges="5679171#4 -5679171#4 219964428#7 219964428#8 219964428#9 219964428#10 219964428#11 219964428#12 219964428#13 219964428#14 219964428#15 34593472#13"/>
    </vehicle>
    <vehicle id="veh46" type="veh_passenger" depart="119.52" departLane="best">
        <route edges="-227074781#9 -227074781#8 -227074781#7 -227074781#6 -227074781#5 -227074781#4 34593472#12 219964428#16 275355374"/>
    </vehicle>
    <vehicle id="veh47" type="veh_passenger" depart="122.12" departLane="best">
        <route edges="587067529#0 -587067529#0 -5679171#12 -5679171#11 -5679171#10 -5679171#9 -5679171#8 -5679171#7 221585914#5 221585914#6 221585914#7 221585914#8 5677430#8 489437292#3"/>
    </vehicle>
    <vehicle id="veh48" type="veh_passenger" depart="124.72" departLane="best">
        <route edges="5681568#2 495491355#1 222246540#0 222246540#1 222246540#2 222246542#0 222246542#1 222246542#2 222246542#3 5680442#1 5680442#2"/>
    </vehicle>
    <vehicle id="veh49" type="veh_passenger" depart="127.32" departLane="best">
        <route edges="-219964428#3 219964428#3 219964428#4 5678756#2 5678756#3 5678756#4 5678756#5 5678756#6 221777109#17 5678359#0 5678359#1"/>
    </vehicle>
    <vehicle id="veh50" type="veh_passenger" depart="129.91" departLane="best">
        <route edges="5678025 5680992#0 5680992#1 5680992#2 5680992#3 5680992#4 5680992#5 5680992#6 5680992#7 489437292#8 489437292#9"/>
    </vehicle>
    <vehicle id="veh51" type="veh_passenger" depart="132.51" departLane="best">
        <route edges="221696386#7 221696386#8 221696386#9 497257926#0 497257926#1 5680703#5 5680704 495491355#0 495491355#1 222246540#0 222246540#1 222246540#2 222246542#0 222246542#1 222246542#2 587067527#1 587067527#2 515885147#0 5677430#0"/>
    </vehicle>
    <vehicle id="veh52" type="veh_passenger" depart="135.11" departLane="best">
        <route edges="-5678026 5680992#0 5680992#1 5680992#2 5677037#2 5679171#11 5679171#12 587067529#0 587067529#1 222246285#0 222246282#0 5681207 350687715#1"/>
    </vehicle>
    <vehicle id="veh53" type="veh_passenger" depart="137.71" departLane="best">
        <route edges="40879226#6 221585914#1 221585914#2 221585914#3 221585914#4 221585914#5 221585914#6 221585914#7 221585914#8 221585914#9 221585914#10 221585914#11 221585914#12 221585914#13 5680742#7 5680742#8 5680742#9 5680742#10 5677037#11 5677037#12 5681568#0"/>
    </vehicle>
    <vehicle id="veh54" type="veh_passenger" depart="140.31" departLane="best">
        <route edges="5680442#5 5678442#6 37434658#6 37434658#7 37434658#8 -587067528 221696386#0 221696386#1 221696386#2 221696386#3 221696386#4 221696386#5 221696386#6 221696386#7 221696386#8 221696386#9"/>
    </vehicle>
    <vehicle id="veh56" type="veh_passenger" depart="145.50" departLane="best">
        <route edges="5680742#15 587067520#2 222246543#0 222246543#1 227074779#0 227074779#1 495491356#1 495491356#2 495491356#3 5676994#6 5676994#7 5676994#8 5676994#9 5676994#10 5676994#11 5676994#12 5676994#13 5676994#14 221696381#0 5680442#3 5680442#4 5680442#5 5680442#6 5680442#7 5680442#8 5680442#9"/>
    </vehicle>
    <vehicle id="veh57" type="veh_passenger" depart="148.10" departLane="best">
        <route edges="221777109#6 5680742#8 5680742#9 5679708#7 5679708#8 432552974 5677037#9"/>
    </vehicle>
    <vehicle id="veh58" type="veh_passenger" depart="150.70" departLane="best">
        <route edges="5676994#0 5676994#2 5676994#3 5676994#4 5676994#5 5676994#6 5676994#7 5676994#8 5676994#9 5676994#10 5676994#11 5676994#12 5676994#13 5676994#14 -587067528 587067527#0 587067527#1 -587067527#1"/>
    </vehicle>
    <vehicle id="veh59" type="veh_passenger" depart="153.30" departLane="best">
        <route edges="5678756#0 219964428#5 219964428#6 5679171#4 5679171#5 5679171#6 5679171#7 5679171#8 5679171#9 5679171#10 5679171#11 5679171#12 587067529#0 587067529#1 222246285#0 222246285#1 222246285#2 221696386#0 221696386#1 221696386#2 221696386#3 221696386#4 221696386#5 221696386#6 221696386#7 221696386#8 221696386#9 497257926#0 497257926#1 5680703#5 5680704 495491355#0"/>
    </vehicle>
    <vehicle id="veh60" type="veh_passenger" depart="155.90" departLane="best">
        <route edges="5678756#9 5677037#1 5677037#2 -5679171#10 -5679171#9 -5679171#8 -5679171#7 221585914#5 221585914#6 221585914#7 221585914#8 5677430#8 489437292#3 489437292#4"/>
    </vehicle>
    <vehicle id="veh61" type="veh_passenger" depart="158.49" departLane="best">
        <route edges="-219964428#10 37434658#1 37434658#2 37434658#3 37434658#4 37434658#5 37434658#6 37434658#7 37434658#8 -587067528 221696386#0 221696386#1 221696386#2 221696386#3 221696386#4 221696386#5 221696386#6 5681568#2 5681568#3 222246543#1 222246543#2 222246543#3 222246543#4"/>
    </vehicle>
    <vehicle id="veh62" type="veh_passenger" depart="161.09" departLane="best">
        <route edges="-219964428#9 219964428#9 37434658#1 37434658#2 37434658#3 37434658#4 37434658#5 37434658#6 37434658#7 37434658#8 -587067528 221696386#0 221696386#1 221696386#2 221696386#3 221696386#4 221696386#5 221696386#6 221696386#7 221696386#8 5681383#0 5681383#1"/>
    </vehicle>
    <vehicle id="veh63" type="veh_passenger" depart="163.69" departLane="best">
        <route edges="5680442#7 221585914#7 37434658#4 37434658#5 37434658#6 5679708#12 5679708#13 5679708#14 5679708#15 5679708#16 227064551#0 5680159#0"/>
    </vehicle>
    <vehicle id="veh64" type="veh_passenger" depart="166.29" departLane="best">
        <route edges="222246285#0 222246285#1 222246285#2 221696386#0 221696386#1 221696386#2 221696386#3 221696386#4 221696386#5 221696386#6 221696386#7 495491356#3 46865765#0 46865765#1 46865765#2 46865765#3 46865765#4 46865765#5 46865765#6 46865765#7 46865765#8 46865765#9 46865765#10 227074781#2 -227074781#2"/>
    </vehicle>
    <vehicle id="veh65" type="veh_passenger" depart="168.89" departLane="best">
        <route edges="5680442#6 221777109#13 221446578#5 5678442#5 5678442#6 5678442#7 5678442#8 5678442#9 5678442#10 5678442#11 5678442#12 5678442#13 5680742#9 5680742#10 5677037#11 5677037#12 5677037#13 5677037#14 5681383#4 5681383#5 5681383#6"/>
    </vehicle>
    <vehicle id="veh66" type="veh_passenger" depart="171.49" departLane="best">
        <route edges="-432552970#0 -222247159 -432552966#3 -432552966#2 -432552966#1 -432552966#0 -432552978 -432552974 -432552981#1 -432552981#0 -432552980#1 -432552980#0 -432552979#1 -432552979#0 -432552982 432552982"/>
    </vehicle>
    <vehicle id="veh67" type="veh_passenger" depart="174.08" departLane="best">
        <route edges="-23113651#2 447792827#1 587067526#1 587067526#2 221696380#0 221696380#1 -350687715#1 -350687715#0 221688254 -587067529#1 -587067529#0 497256110#0 5680992#1 5680992#2 5680992#3 5680992#4 5680992#5 5680992#6 5680992#7 5680992#8 227074781#14 5678756#3"/>
    </vehicle>
    <vehicle id="veh68" type="veh_passenger" depart="176.68" departLane="best">
        <route edges="5678756#0 219964428#5 219964428#6 5679171#4 5679171#5 5679171#6 5679171#7 5679171#8 5679171#9 5679171#10 5679171#11 5679171#12 587067529#0 587067529#1 222246285#0 222246282#0 222246282#1 222246542#5 587355756 -5679875#1 -5679875#0"/>
    </vehicle>
    <vehicle id="veh69" type="veh_passenger" depart="179.28" departLane="best">
        <route edges="432552966#2 -432552966#2 -432552966#1 -432552966#0 5676994#12 5676994#13 5676994#14 221696381#0 221696381#1 221696381#2 497256110#0 497256110#1"/>
    </vehicle>
    <vehicle id="veh70" type="veh_passenger" depart="181.88" departLane="best">
        <route edges="37434658#0 219964428#10 219964428#11 219964428#12 219964428#13 219964428#14 5680742#1 5680742#2 5680742#3 5680742#4 5680742#5 5680742#6 221585914#14 221585914#15 221585914#16 221585914#17"/>
    </vehicle>
    <vehicle id="veh71" type="veh_passenger" depart="184.48" departLane="best">
        <route edges="489437292#2 489437292#3 37434658#3 221585914#8 221585914#9 5678215#4 5678215#5 5678442#10 5678442#11 5678442#12 5678442#13"/>
    </vehicle>
    <vehicle id="veh72" type="veh_passenger" depart="187.08" departLane="best">
        <route edges="221446578#2 221446578#3 221446578#4 221446578#5 221446578#6 221446578#7 221446578#8 221446578#9 222246285#1 222246285#2 221696386#0 221696386#1 5678215#10 222246542#1 222246542#2"/>
    </vehicle>
    <vehicle id="veh73" type="veh_passenger" depart="189.67" departLane="best">
        <route edges="587067528 221696381#0 5680442#3 5680442#4 5680442#5 5680442#6 5680442#7 221585914#7 221585914#8 5677430#8 5677430#9 5677430#10 5677430#11"/>
    </vehicle>
    <vehicle id="veh74" type="veh_passenger" depart="192.27" departLane="best">
        <route edges="37434658#6 5679708#12 5680442#5 5680442#6 5680442#7 221585914#7 221585914#8 221585914#9 221585914#10 -432552982 489437292#1"/>
    </vehicle>
    <vehicle id="veh75" type="veh_passenger" depart="194.87" departLane="best">
        <route edges="-5679171#12 -5679171#11 -5679171#10 -5679171#9 -5679171#8 221777109#15 5680992#6 221585914#4"/>
    </vehicle>
    <vehicle id="veh76" type="veh_passenger" depart="197.47" departLane="best">
        <route edges="227074779#0 227074779#1 495491355#0 495491355#1 222246540#0 222246540#1 222246540#2 222246542#0 222246542#1 222246542#2 587067527#1 5679875#0 5679875#1 -221696380#0 -587067526#2 5676884#0"/>
    </vehicle>
    <vehicle id="veh77" type="veh_passenger" depart="200.07" departLane="best">
        <route edges="221585914#16 221585914#17 221585914#18 221585914#19"/>
    </vehicle>
    <vehicle id="veh78" type="veh_passenger" depart="202.67" departLane="best">
        <route edges="-23113651#2 447792827#1 587067526#1 587067526#2 221696380#0 221696380#1 -350687715#1 -350687715#0 221688254 -587067529#1 -587067529#0 -5679171#12 -5679171#11 5677037#3 5677037#4"/>
    </vehicle>
    <vehicle id="veh79" type="veh_passenger" depart="205.26" departLane="best">
        <route edges="221585914#15 5679790#1 5679790#2 5679790#3 5679708#5 5679708#6 5680742#10 5680742#11 5680742#12 5676994#10 5676994#11 5676994#12 5676994#13 5676994#14 221696381#0 221696381#1 221696381#2 587067529#0 5678025 5680992#0"/>
    </vehicle>
    <vehicle id="veh80" type="veh_passenger" depart="207.86" departLane="best">
        <route edges="5680159#2 5680159#3 221585914#2 221585914#3 221585914#4 5679171#7 5679171#8 5679171#9 5679171#10 5679171#11 5679171#12 587067529#0 587067529#1 222246285#0 222246282#0 222246282#1 222246542#5 587355756 -221696380#0 -587067526#2 5676884#0 -23113651#0"/>
    </vehicle>
    <vehicle id="veh81" type="veh_passenger" depart="210.46" departLane="best">
        <route edges="221585914#4 221585914#5 221585914#6 221585914#7 221585914#8 221585914#9 221585914#10 221585914#11 221585914#12 221585914#13 221585914#14 221585914#15 5679790#1 5679790#2 5678442#16 5678442#17 5678442#18 51980526#1 51980526#2 51980526#3 51980526#4 46863673#0 46863673#1 5677818#0 5677818#1"/>
    </vehicle>
    <vehicle id="veh83" type="veh_passenger" depart="215.66" departLane="best">
        <route edges="5680992#2 5677037#2 5677037#3 5677037#4 5677037#5 5677037#6 5677037#7 5677037#8 5677037#9 5677037#10 5677037#11 5677037#12 5677037#13 5677037#14 5677037#15 51980526#3"/>
    </vehicle>
    <vehicle id="veh84" type="veh_passenger" depart="218.26" departLane="best">
        <route edges="432552966#0 -432552966#0 -432552978 -432552974 5679708#9 5679708#10"/>
    </vehicle>
    <vehicle id="veh85" type="veh_passenger" depart="220.85" departLane="best">
        <route edges="5679708#0 5679708#1 5679708#2 5679708#3 5679708#4 5679708#5 5679708#6 5679708#7 34287042#7 34287042#8 221777109#8 221777109#9 221777109#10 221777109#11 221777109#12 5680442#7 5680442#8 489437292#5 221446578#3"/>
    </vehicle>
    <vehicle id="veh86" type="veh_passenger" depart="223.45" departLane="best">
        <route edges="37434658#0 37434658#1 37434658#2 37434658#3 37434658#4 37434658#5 37434658#6 37434658#7 37434658#8 -587067528 221696386#0 221696386#1 221696386#2 -432552966#3 432552966#3"/>
    </vehicle>
    <vehicle id="veh87" type="veh_passenger" depart="226.05" departLane="best">
        <route edges="5678442#0 5678442#1 5678442#2 5678442#3 5679171#9 5679171#10 5679171#11 5679171#12 587067529#0 587067529#1 222246285#0 222246285#1 222246285#2 221696386#0 221696386#1 221696386#2 221696386#3 221696386#4 221696386#5 221696386#6 221696386#7 221696386#8 221696386#9 497257926#0 5677926#1"/>
    </vehicle>
    <vehicle id="veh88" type="veh_passenger" depart="228.65" departLane="best">
        <route edges="587067526#0 587067526#1 587067526#2 221696380#0 221696380#1 -350687715#1 -350687715#0 221688254 222246285#0 222246285#1 222246285#2 221696386#0 221696386#1 221696386#2 -432552966#3 -432552966#2 -432552966#1 -432552966#0 -432552978 -432552974 -432552981#1 -432552981#0 -432552980#1 -432552980#0 -432552979#1 -432552979#0 -432552982"/>
    </vehicle>
    <vehicle id="veh89" type="veh_passenger" depart="231.25" departLane="best">
        <route edges="34593472#2 34593472#3 5677037#12 5681568#0 5681568#1 5681568#2 5681568#3 222246543#1 227074779#0 227074779#1"/>
    </vehicle>
    <vehicle id="veh90" type="veh_passenger" depart="233.85" departLane="best">
        <route edges="5680159#3 221585914#2 221585914#3 221585914#4 5679171#7 5679171#8 5679171#9 5679171#10 5679171#11 5679171#12 587067529#0 587067529#1 222246285#0 222246285#1 222246285#2 221696386#0 221696386#1 221696386#2 221696386#3 221696386#4 221696386#5 221696386#6 221696386#7 221696386#8 221696386#9 221696386#10"/>
    </vehicle>
    <vehicle id="veh91" type="veh_passenger" depart="236.44" departLane="best">
        <route edges="219964428#9 37434658#1 37434658#2 37434658#3 37434658#4"/>
    </vehicle>
    <vehicle id="veh92" type="veh_passenger" depart="239.04" departLane="best">
        <route edges="350687715#1 -350687715#1 -350687715#0 221688254 222246285#0 222246285#1 222246285#2 221696386#0 221696386#1 221696386#2 221696386#3 221696386#4 221696386#5 221696386#6 221696386#7 495491356#3 46865765#0 46865765#1 46865765#2 46865765#3 46865765#4 46865765#5 46865765#6 5678442#17 5678442#18 5678442#19 5679892#3 221777109#1 221777109#2"/>
    </vehicle>
    <vehicle id="veh93" type="veh_passenger" depart="241.64" departLane="best">
        <route edges="221696380#0 221696380#1 -350687715#1 -350687715#0 221688254 -587067529#1 -587067529#0 497256110#0 5680992#1 5680992#2 5680992#3 5680992#4 5680992#5 5680992#6 5680992#7"/>
    </vehicle>
    <vehicle id="veh94" type="veh_passenger" depart="244.24" departLane="best">
        <route edges="40879226#0 219964428#3 219964428#4 219964428#5 219964428#6 219964428#7 221446578#1 221446578#2 221446578#3 221446578#4 221446578#5 221446578#6 221446578#7 5677037#4 5677037#5 37434658#8 221696381#0 5680442#3"/>
    </vehicle>
    <vehicle id="veh95" type="veh_passenger" depart="246.84" departLane="best">
        <route edges="495491355#0 495491355#1 34593472#0 34593472#1 5676994#8 5676994#9 5676994#10 5676994#11 5676994#12 5676994#13 5676994#14 221696381#0 5680442#3 5680442#4 5680442#5 5680442#6 5680442#7 5680442#8 5680442#9 227074781#11 -227074781#11"/>
    </vehicle>
    <vehicle id="veh96" type="veh_passenger" depart="249.43" departLane="best">
        <route edges="587355756 221696380#1 -350687715#1 -350687715#0 221688254 -587067529#1 -587067529#0 497256110#0 5680992#1 5680992#2 5680992#3 5680992#4 5680992#5 221777109#16 221777109#17 5680159#3"/>
    </vehicle>
    <vehicle id="veh97" type="veh_passenger" depart="252.03" departLane="best">
        <route edges="5681568#1 221696386#7 495491356#3 5676994#6 5676994#7 5676994#8 5676994#9 5676994#10 5676994#11 5676994#12 5676994#13 5676994#14 221696381#0 221696381#1 221446578#9 222246282#0 5681207"/>
    </vehicle>
    <vehicle id="veh98" type="veh_passenger" depart="254.63" departLane="best">
        <route edges="5679892#0 5679892#1 5679708#1 51980526#2 51980526#3 51980526#4 46863673#0 46863673#1 46863673#2 46863673#3 497257926#0 497257926#1 497257926#2 497257926#3 497257926#4 107391104"/>
    </vehicle>