<?xml version="1.0" encoding="UTF-8"?>

<!-- generated on 09/28/18 10:02:09 by Eclipse SUMO netedit Version 1.0.0
<configuration xmlns:xsi="http://www.w3.org/2001/XMLSchema-instance" xsi:noNamespaceSchemaLocation="http://sumo.dlr.de/xsd/netconvertConfiguration.xsd">

    <input>
        <sumo-net-file value="C:\Users\isaia\OneDrive\Documents\GitHub\SeniorResearch\SUMO_files\RealWorldSystems\NYCDenseNetwork\nycdense.net.xml"/>
    </input>

    <output>
        <output-file value="C:\Users\isaia\OneDrive\Documents\GitHub\SeniorResearch\SUMO_files\RealWorldSystems\NYCDenseNetwork\nycdense.net.xml"/>
        <output.street-names value="true"/>
    </output>

    <processing>
        <offset.disable-normalization value="true"/>
        <lefthand value="false"/>
    </processing>

    <junctions>
        <no-turnarounds value="true"/>
        <junctions.corner-detail value="5"/>
        <junctions.limit-turn-speed value="5.5"/>
        <rectangular-lane-cut value="false"/>
    </junctions>

    <pedestrian>
        <walkingareas value="false"/>
    </pedestrian>

</configuration>
-->

<net version="1.0" junctionCornerDetail="5" limitTurnSpeed="5.50" xmlns:xsi="http://www.w3.org/2001/XMLSchema-instance" xsi:noNamespaceSchemaLocation="http://sumo.dlr.de/xsd/net_file.xsd">

    <location netOffset="-586341.99,-4503613.30" convBoundary="0.00,0.00,5707.74,7546.64" origBoundary="-73.978144,40.678270,-73.910782,40.746560" projParameter="+proj=utm +zone=18 +ellps=WGS84 +datum=WGS84 +units=m +no_defs"/>

    <type id="highway.bridleway" priority="1" numLanes="1" speed="2.78" allow="pedestrian" oneway="1" width="2.00"/>
    <type id="highway.bus_guideway" priority="1" numLanes="1" speed="27.78" allow="bus" oneway="1"/>
    <type id="highway.cycleway" priority="1" numLanes="1" speed="8.33" allow="bicycle" oneway="0" width="1.00"/>
    <type id="highway.footway" priority="1" numLanes="1" speed="2.78" allow="pedestrian" oneway="1" width="2.00"/>
    <type id="highway.ford" priority="1" numLanes="1" speed="2.78" allow="army" oneway="0"/>
    <type id="highway.living_street" priority="3" numLanes="1" speed="2.78" disallow="tram rail_urban rail rail_electric ship" oneway="0"/>
    <type id="highway.motorway" priority="13" numLanes="2" speed="44.44" allow="private emergency authority army vip passenger hov taxi bus coach delivery truck trailer motorcycle evehicle custom1 custom2" oneway="1"/>
    <type id="highway.motorway_link" priority="12" numLanes="1" speed="22.22" allow="private emergency authority army vip passenger hov taxi bus coach delivery truck trailer motorcycle evehicle custom1 custom2" oneway="1"/>
    <type id="highway.path" priority="1" numLanes="1" speed="2.78" allow="bicycle pedestrian" oneway="1" width="2.00"/>
    <type id="highway.pedestrian" priority="1" numLanes="1" speed="2.78" allow="pedestrian" oneway="1" width="2.00"/>
    <type id="highway.primary" priority="9" numLanes="2" speed="27.78" disallow="tram rail_urban rail rail_electric ship" oneway="0"/>
    <type id="highway.primary_link" priority="8" numLanes="1" speed="22.22" disallow="tram rail_urban rail rail_electric ship" oneway="0"/>
    <type id="highway.raceway" priority="14" numLanes="2" speed="83.33" allow="vip" oneway="0"/>
    <type id="highway.residential" priority="4" numLanes="1" speed="13.89" disallow="tram rail_urban rail rail_electric ship" oneway="0"/>
    <type id="highway.secondary" priority="7" numLanes="2" speed="27.78" disallow="tram rail_urban rail rail_electric ship" oneway="0"/>
    <type id="highway.secondary_link" priority="6" numLanes="1" speed="22.22" disallow="tram rail_urban rail rail_electric ship" oneway="0"/>
    <type id="highway.service" priority="2" numLanes="1" speed="5.56" allow="delivery bicycle pedestrian" oneway="0"/>
    <type id="highway.stairs" priority="1" numLanes="1" speed="1.39" allow="pedestrian" oneway="1" width="2.00"/>
    <type id="highway.step" priority="1" numLanes="1" speed="1.39" allow="pedestrian" oneway="1" width="2.00"/>
    <type id="highway.steps" priority="1" numLanes="1" speed="1.39" allow="pedestrian" oneway="1" width="2.00"/>
    <type id="highway.tertiary" priority="6" numLanes="1" speed="22.22" disallow="tram rail_urban rail rail_electric ship" oneway="0"/>
    <type id="highway.tertiary_link" priority="5" numLanes="1" speed="22.22" disallow="tram rail_urban rail rail_electric ship" oneway="0"/>
    <type id="highway.track" priority="1" numLanes="1" speed="5.56" disallow="tram rail_urban rail rail_electric ship" oneway="0"/>
    <type id="highway.trunk" priority="11" numLanes="2" speed="27.78" disallow="tram rail_urban rail rail_electric bicycle pedestrian ship" oneway="0"/>
    <type id="highway.trunk_link" priority="10" numLanes="1" speed="22.22" disallow="tram rail_urban rail rail_electric bicycle pedestrian ship" oneway="0"/>
    <type id="highway.unclassified" priority="5" numLanes="1" speed="13.89" disallow="tram rail_urban rail rail_electric ship" oneway="0"/>
    <type id="highway.unsurfaced" priority="1" numLanes="1" speed="8.33" disallow="tram rail_urban rail rail_electric ship" oneway="0"/>
    <type id="railway.light_rail" priority="15" numLanes="1" speed="27.78" allow="rail_urban" oneway="1"/>
    <type id="railway.preserved" priority="15" numLanes="1" speed="27.78" allow="rail" oneway="1"/>
    <type id="railway.rail" priority="15" numLanes="1" speed="83.33" allow="rail rail_electric" oneway="1"/>
    <type id="railway.subway" priority="15" numLanes="1" speed="27.78" allow="rail_urban" oneway="1"/>
    <type id="railway.tram" priority="15" numLanes="1" speed="13.89" allow="tram" oneway="1"/>

    <edge id=":1275778386_0" function="internal">
        <lane id=":1275778386_0_0" index="0" allow="bicycle pedestrian" speed="2.78" length="4.02" width="2.00" shape="2702.94,1275.50 2701.84,1275.50 2701.00,1275.85 2700.42,1276.55 2700.09,1277.60"/>
    </edge>
    <edge id=":1275778386_1" function="internal">
        <lane id=":1275778386_1_0" index="0" allow="bicycle pedestrian" speed="2.78" length="4.26" width="2.00" shape="2702.94,1275.50 2701.70,1275.32 2700.84,1275.06 2700.12,1274.56 2699.32,1273.63"/>
    </edge>
    <edge id=":1275778395_0" function="internal">
        <lane id=":1275778395_0_0" index="0" allow="bicycle pedestrian" speed="2.78" length="5.00" width="2.00" shape="2665.42,1258.40 2660.48,1257.58"/>
    </edge>
    <edge id=":1275778395_1" function="internal">
        <lane id=":1275778395_1_0" index="0" allow="bicycle pedestrian" speed="2.78" length="4.04" width="2.00" shape="2662.52,1260.46 2662.56,1259.35 2662.23,1258.51 2661.54,1257.91 2660.48,1257.58"/>
    </edge>
    <edge id=":1275778398_0" function="internal">
        <lane id=":1275778398_0_0" index="0" allow="bicycle pedestrian" speed="2.78" length="5.65" width="2.00" shape="2622.27,1218.72 2623.20,1220.12 2623.93,1221.11 2624.86,1221.77 2626.41,1222.19"/>
    </edge>
    <edge id=":1275778398_1" function="internal">
        <lane id=":1275778398_1_0" index="0" allow="bicycle pedestrian" speed="2.78" length="5.79" width="2.00" shape="2620.69,1221.28 2626.41,1222.19"/>
    </edge>
    <edge id=":1275778419_0" function="internal">
        <lane id=":1275778419_0_0" index="0" allow="bicycle pedestrian" speed="4.87" length="4.54" width="2.00" shape="2651.20,1310.08 2652.31,1310.06 2653.17,1309.61 2653.80,1308.73 2654.19,1307.41"/>
    </edge>
    <edge id=":1275778419_1" function="internal">
        <lane id=":1275778419_1_0" index="0" disallow="tram rail_urban rail rail_electric ship" speed="13.89" length="5.00" shape="2651.20,1310.08 2656.14,1310.89"/>
    </edge>
    <edge id=":1275778427_0" function="internal">
        <lane id=":1275778427_0_0" index="0" allow="bicycle pedestrian" speed="2.78" length="4.50" width="2.00" shape="2718.21,1278.67 2717.15,1277.89 2716.33,1277.46 2715.43,1277.23 2714.12,1277.04"/>
    </edge>
    <edge id=":1275778427_1" function="internal">
        <lane id=":1275778427_1_0" index="0" allow="bicycle pedestrian" speed="2.78" length="4.02" width="2.00" shape="2716.98,1274.95 2716.64,1275.99 2716.05,1276.69 2715.21,1277.04 2714.12,1277.04"/>
    </edge>
    <edge id=":1275778444_0" function="internal">
        <lane id=":1275778444_0_0" index="0" allow="bicycle pedestrian" speed="2.78" length="5.00" width="2.00" shape="2637.60,1224.09 2642.53,1224.93"/>
    </edge>
    <edge id=":1275778444_1" function="internal">
        <lane id=":1275778444_1_0" index="0" allow="bicycle pedestrian" speed="2.78" length="4.03" width="2.00" shape="2639.65,1226.98 2639.98,1225.92 2640.57,1225.23 2641.42,1224.90 2642.53,1224.93"/>
    </edge>
    <edge id=":1275778466_0" function="internal">
        <lane id=":1275778466_0_0" index="0" allow="bicycle pedestrian" speed="2.78" length="5.01" width="2.00" shape="2720.80,1238.21 2725.73,1239.06"/>
    </edge>
    <edge id=":1275778466_1" function="internal">
        <lane id=":1275778466_1_0" index="0" allow="bicycle pedestrian" speed="2.78" length="4.03" width="2.00" shape="2720.80,1238.21 2721.85,1238.54 2722.54,1239.13 2722.87,1239.98 2722.84,1241.09"/>
    </edge>
    <edge id=":2597729100_0" function="internal">
        <lane id=":2597729100_0_0" index="0" disallow="tram rail_urban rail rail_electric ship" speed="13.89" length="0.30" shape="3621.40,1218.16 3621.10,1218.12"/>
    </edge>
    <edge id=":2597729104_0" function="internal">
        <lane id=":2597729104_0_0" index="0" disallow="tram rail_urban rail rail_electric ship" speed="13.89" length="0.10" shape="3700.28,1231.25 3700.28,1231.25"/>
    </edge>
    <edge id=":2597736879_0" function="internal">
        <lane id=":2597736879_0_0" index="0" disallow="tram rail_urban rail rail_electric ship" speed="13.89" length="0.10" shape="3081.05,929.37 3081.05,929.37"/>
    </edge>
    <edge id=":2597736883_0" function="internal">
        <lane id=":2597736883_0_0" index="0" disallow="tram rail_urban rail rail_electric ship" speed="13.89" length="0.30" shape="3251.39,992.98 3251.09,992.93"/>
    </edge>
    <edge id=":2597736883_1" function="internal">
        <lane id=":2597736883_1_0" index="0" disallow="tram rail_urban rail rail_electric ship" speed="13.89" length="0.30" shape="3251.61,989.78 3251.91,989.83"/>
    </edge>
    <edge id=":2597736887_0" function="internal">
        <lane id=":2597736887_0_0" index="0" disallow="tram rail_urban rail rail_electric ship" speed="13.89" length="0.10" shape="3555.55,1075.07 3555.55,1075.07"/>
    </edge>
    <edge id=":2597737952_0" function="internal">
        <lane id=":2597737952_0_0" index="0" disallow="tram rail_urban rail rail_electric ship" speed="13.89" length="0.10" shape="3457.39,1026.69 3457.39,1026.69"/>
    </edge>
    <edge id=":2597737952_1" function="internal">
        <lane id=":2597737952_1_0" index="0" disallow="tram rail_urban rail rail_electric ship" speed="13.89" length="0.10" shape="3457.91,1023.53 3457.91,1023.53"/>
    </edge>
    <edge id=":2597738079_0" function="internal">
        <lane id=":2597738079_0_0" index="0" disallow="tram rail_urban rail rail_electric ship" speed="13.89" length="0.30" shape="3112.33,737.28 3112.29,737.58"/>
    </edge>
    <edge id=":2597739083_0" function="internal">
        <lane id=":2597739083_0_0" index="0" disallow="tram rail_urban rail rail_electric ship" speed="13.89" length="0.10" shape="3002.27,952.11 3002.27,952.11"/>
    </edge>
    <edge id=":2597739083_1" function="internal">
        <lane id=":2597739083_1_0" index="0" disallow="tram rail_urban rail rail_electric ship" speed="13.89" length="0.10" shape="3002.79,948.95 3002.79,948.95"/>
    </edge>
    <edge id=":2969849194_0" function="internal">
        <lane id=":2969849194_0_0" index="0" disallow="tram rail_urban rail rail_electric ship" speed="6.50" length="9.03" shape="4074.87,1042.47 4072.39,1042.42 4070.50,1043.18 4069.18,1044.74 4068.44,1047.10"/>
    </edge>
    <edge id=":2969849194_1" function="internal">
        <lane id=":2969849194_1_0" index="0" disallow="tram rail_urban rail rail_electric ship" speed="13.89" length="14.40" shape="4074.87,1042.47 4060.66,1040.15"/>
    </edge>
    <edge id=":2969849194_2" function="internal">
        <lane id=":2969849194_2_0" index="0" disallow="tram rail_urban rail rail_electric ship" speed="7.32" length="11.73" shape="4074.87,1042.47 4071.12,1041.50 4068.58,1040.02 4067.24,1038.03 4067.09,1035.52"/>
    </edge>
    <edge id=":2969849194_3" function="internal">
        <lane id=":2969849194_3_0" index="0" disallow="tram rail_urban rail rail_electric ship" speed="13.89" length="11.21" shape="4070.25,1036.04 4068.44,1047.10"/>
    </edge>
    <edge id=":2969849194_4" function="internal">
        <lane id=":2969849194_4_0" index="0" disallow="tram rail_urban rail rail_electric ship" speed="7.33" length="4.04" shape="4070.25,1036.04 4069.31,1038.37 4068.10,1039.30"/>
    </edge>
    <edge id=":2969849194_7" function="internal">
        <lane id=":2969849194_7_0" index="0" speed="7.33" length="7.69" shape="4068.10,1039.30 4067.40,1039.83 4064.51,1040.42 4060.66,1040.15"/>
    </edge>
    <edge id=":2969849194_5" function="internal">
        <lane id=":2969849194_5_0" index="0" disallow="tram rail_urban rail rail_electric ship" speed="6.51" length="9.04" shape="4065.29,1046.59 4065.33,1044.11 4064.58,1042.21 4063.02,1040.89 4060.66,1040.15"/>
    </edge>
    <edge id=":2969849194_6" function="internal">
        <lane id=":2969849194_6_0" index="0" disallow="tram rail_urban rail rail_electric ship" speed="13.89" length="11.22" shape="4065.29,1046.59 4067.09,1035.52"/>
    </edge>
    <edge id=":2969849195_0" function="internal">
        <lane id=":2969849195_0_0" index="0" disallow="tram rail_urban rail rail_electric ship" speed="13.89" length="11.19" shape="3333.36,922.31 3322.31,920.51"/>
    </edge>
    <edge id=":2969849195_1" function="internal">
        <lane id=":2969849195_1_0" index="0" disallow="tram rail_urban rail rail_electric ship" speed="6.49" length="4.28" shape="3333.36,922.31 3331.00,921.58 3329.62,920.42"/>
    </edge>
    <edge id=":2969849195_4" function="internal">
        <lane id=":2969849195_4_0" index="0" speed="6.49" length="4.74" shape="3329.62,920.42 3329.44,920.27 3328.69,918.38 3328.74,915.91"/>
    </edge>
    <edge id=":2969849195_2" function="internal">
        <lane id=":2969849195_2_0" index="0" disallow="tram rail_urban rail rail_electric ship" speed="6.51" length="9.02" shape="3326.92,926.94 3326.97,924.47 3326.22,922.58 3324.67,921.25 3322.31,920.51"/>
    </edge>
    <edge id=":2969849195_3" function="internal">
        <lane id=":2969849195_3_0" index="0" disallow="tram rail_urban rail rail_electric ship" speed="13.89" length="11.18" shape="3326.92,926.94 3328.74,915.91"/>
    </edge>
    <edge id=":3224210870_0" function="internal">
        <lane id=":3224210870_0_0" index="0" disallow="tram rail_urban rail rail_electric ship" speed="13.89" length="0.10" shape="1549.89,1488.98 1549.89,1488.98"/>
    </edge>
    <edge id=":3279417412_0" function="internal">
        <lane id=":3279417412_0_0" index="0" disallow="tram rail_urban rail rail_electric ship" speed="13.89" length="0.10" shape="1554.11,1463.31 1554.11,1463.31"/>
    </edge>
    <edge id=":3958825289_0" function="internal">
        <lane id=":3958825289_0_0" index="0" disallow="tram rail_urban rail rail_electric ship" speed="27.78" length="0.30" shape="2208.55,1514.09 2208.60,1513.79"/>
        <lane id=":3958825289_0_1" index="1" disallow="tram rail_urban rail rail_electric ship" speed="27.78" length="0.30" shape="2211.70,1514.61 2211.75,1514.32"/>
    </edge>
    <edge id=":3958833960_0" function="internal">
        <lane id=":3958833960_0_0" index="0" disallow="tram rail_urban rail rail_electric ship" speed="27.78" length="0.30" shape="2089.07,1386.56 2088.77,1386.51"/>
        <lane id=":3958833960_0_1" index="1" disallow="tram rail_urban rail rail_electric ship" speed="27.78" length="0.30" shape="2089.59,1383.41 2089.29,1383.36"/>
    </edge>
    <edge id=":3984776677_0" function="internal">
        <lane id=":3984776677_0_0" index="0" disallow="tram rail_urban rail rail_electric ship" speed="13.89" length="0.10" shape="1642.25,1374.97 1642.25,1374.97"/>
    </edge>
    <edge id=":4205843889_0" function="internal">
        <lane id=":4205843889_0_0" index="0" disallow="tram rail_urban rail rail_electric ship" speed="11.18" length="8.21" shape="1514.45,1247.37 1514.32,1249.78 1514.61,1251.45 1514.90,1253.12 1514.77,1255.52"/>
        <lane id=":4205843889_0_1" index="1" disallow="tram rail_urban rail rail_electric ship" speed="11.18" length="8.21" shape="1514.45,1247.37 1513.83,1249.70 1513.03,1251.19 1512.23,1252.69 1511.61,1255.02"/>
    </edge>
    <edge id=":42464560_0" function="internal">
        <lane id=":42464560_0_0" index="0" disallow="tram rail_urban rail rail_electric ship" speed="6.08" length="7.75" shape="1444.61,697.75 1443.33,697.14 1442.57,695.82 1442.31,693.78 1442.57,691.03"/>
    </edge>
    <edge id=":42464562_0" function="internal">
        <lane id=":42464562_0_0" index="0" disallow="tram rail_urban rail rail_electric ship" speed="13.89" length="11.22" shape="1486.90,454.48 1475.82,452.66"/>
    </edge>
    <edge id=":42464562_1" function="internal">
        <lane id=":42464562_1_0" index="0" disallow="tram rail_urban rail rail_electric ship" speed="7.34" length="4.05" shape="1486.90,454.48 1484.57,453.54 1483.64,452.32"/>
    </edge>
    <edge id=":42464562_8" function="internal">
        <lane id=":42464562_8_0" index="0" speed="7.34" length="7.70" shape="1483.64,452.32 1483.10,451.63 1482.50,448.74 1482.76,444.88"/>
    </edge>
    <edge id=":42464562_2" function="internal">
        <lane id=":42464562_2_0" index="0" disallow="tram rail_urban rail rail_electric ship" speed="6.49" length="9.03" shape="1476.34,449.51 1478.82,449.56 1480.72,448.81 1482.03,447.25 1482.76,444.88"/>
    </edge>
    <edge id=":42464562_3" function="internal">
        <lane id=":42464562_3_0" index="0" disallow="tram rail_urban rail rail_electric ship" speed="13.89" length="11.22" shape="1476.34,449.51 1487.41,451.32"/>
    </edge>
    <edge id=":42464562_4" function="internal">
        <lane id=":42464562_4_0" index="0" disallow="tram rail_urban rail rail_electric ship" speed="3.65" length="2.34" shape="1476.34,449.51 1477.40,450.49 1477.66,451.35"/>
    </edge>
    <edge id=":42464562_9" function="internal">
        <lane id=":42464562_9_0" index="0" speed="3.65" length="2.34" shape="1477.66,451.35 1477.14,452.07 1475.82,452.66"/>
    </edge>
    <edge id=":42464562_5" function="internal">
        <lane id=":42464562_5_0" index="0" disallow="tram rail_urban rail rail_electric ship" speed="6.52" length="9.06" shape="1480.47,459.11 1480.52,456.63 1479.76,454.73 1478.19,453.41 1475.82,452.66"/>
    </edge>
    <edge id=":42464562_6" function="internal">
        <lane id=":42464562_6_0" index="0" disallow="tram rail_urban rail rail_electric ship" speed="13.89" length="14.41" shape="1480.47,459.11 1482.76,444.88"/>
    </edge>
    <edge id=":42464562_7" function="internal">
        <lane id=":42464562_7_0" index="0" disallow="tram rail_urban rail rail_electric ship" speed="7.33" length="11.73" shape="1480.47,459.11 1481.44,455.36 1482.91,452.82 1484.91,451.47 1487.41,451.32"/>
    </edge>
    <edge id=":42464564_0" function="internal">
        <lane id=":42464564_0_0" index="0" disallow="tram rail_urban rail rail_electric ship" speed="27.78" length="11.50" shape="1496.92,384.98 1485.80,387.90"/>
        <lane id=":42464564_0_1" index="1" disallow="tram rail_urban rail rail_electric ship" speed="27.78" length="11.50" shape="1496.11,381.88 1484.99,384.80"/>
    </edge>
    <edge id=":42464564_2" function="internal">
        <lane id=":42464564_2_0" index="0" disallow="tram rail_urban rail rail_electric ship" speed="27.78" length="11.50" shape="1483.36,378.61 1494.49,375.69"/>
        <lane id=":42464564_2_1" index="1" disallow="tram rail_urban rail rail_electric ship" speed="27.78" length="11.50" shape="1484.18,381.71 1495.30,378.79"/>
    </edge>
    <edge id=":42464564_4" function="internal">
        <lane id=":42464564_4_0" index="0" disallow="tram rail_urban rail rail_electric ship" speed="3.65" length="2.34" shape="1484.18,381.71 1485.54,382.18 1486.13,382.85"/>
    </edge>
    <edge id=":42464564_7" function="internal">
        <lane id=":42464564_7_0" index="0" speed="3.65" length="2.34" shape="1486.13,382.85 1485.95,383.72 1484.99,384.80"/>
    </edge>
    <edge id=":42464564_5" function="internal">
        <lane id=":42464564_5_0" index="0" disallow="tram rail_urban rail rail_electric ship" speed="5.80" length="9.15" shape="1491.03,392.63 1491.08,389.94 1490.23,388.26 1488.47,387.58 1485.80,387.90"/>
    </edge>
    <edge id=":42464564_6" function="internal">
        <lane id=":42464564_6_0" index="0" disallow="tram rail_urban rail rail_electric ship" speed="9.74" length="14.72" shape="1491.03,392.63 1492.09,386.79 1493.15,382.53 1494.22,379.86 1495.30,378.79"/>
    </edge>
    <edge id=":42464953_0" function="internal">
        <lane id=":42464953_0_0" index="0" disallow="tram rail_urban rail rail_electric ship" speed="7.24" length="7.78" shape="1580.32,363.14 1578.73,363.86 1577.47,365.08 1576.55,366.82 1575.98,369.06"/>
    </edge>
    <edge id=":42464953_1" function="internal">
        <lane id=":42464953_1_0" index="0" disallow="tram rail_urban rail rail_electric ship" speed="27.78" length="8.71" shape="1580.32,363.14 1571.89,365.35"/>
        <lane id=":42464953_1_1" index="1" disallow="tram rail_urban rail rail_electric ship" speed="27.78" length="8.71" shape="1579.51,360.05 1571.08,362.25"/>
    </edge>
    <edge id=":42464953_3" function="internal">
        <lane id=":42464953_3_0" index="0" disallow="tram rail_urban rail rail_electric ship" speed="27.78" length="8.72" shape="1569.46,356.06 1577.90,353.85"/>
        <lane id=":42464953_3_1" index="1" disallow="tram rail_urban rail rail_electric ship" speed="27.78" length="8.72" shape="1570.27,359.16 1578.71,356.95"/>
    </edge>
    <edge id=":42464953_5" function="internal">
        <lane id=":42464953_5_0" index="0" disallow="tram rail_urban rail rail_electric ship" speed="7.08" length="4.37" shape="1570.27,359.16 1573.50,359.02 1574.39,359.73"/>
    </edge>
    <edge id=":42464953_6" function="internal">
        <lane id=":42464953_6_0" index="0" disallow="tram rail_urban rail rail_electric ship" speed="3.65" length="2.34" shape="1570.27,359.16 1571.64,359.63 1572.23,360.30"/>
    </edge>
    <edge id=":42464953_7" function="internal">
        <lane id=":42464953_7_0" index="0" speed="7.08" length="9.99" shape="1574.39,359.73 1575.52,360.63 1576.35,363.98 1575.98,369.06"/>
    </edge>
    <edge id=":42464953_8" function="internal">
        <lane id=":42464953_8_0" index="0" speed="3.65" length="2.34" shape="1572.23,360.30 1572.04,361.17 1571.08,362.25"/>
    </edge>
    <edge id=":42464955_0" function="internal">
        <lane id=":42464955_0_0" index="0" disallow="tram rail_urban rail rail_electric ship" speed="7.78" length="9.08" shape="1667.55,340.40 1665.94,341.20 1664.65,342.69 1663.66,344.86 1662.98,347.71"/>
    </edge>
    <edge id=":42464955_1" function="internal">
        <lane id=":42464955_1_0" index="0" disallow="tram rail_urban rail rail_electric ship" speed="27.78" length="12.19" shape="1667.55,340.40 1655.75,343.48"/>
        <lane id=":42464955_1_1" index="1" disallow="tram rail_urban rail rail_electric ship" speed="27.78" length="12.19" shape="1666.73,337.30 1654.94,340.38"/>
    </edge>
    <edge id=":42464955_3" function="internal">
        <lane id=":42464955_3_0" index="0" disallow="tram rail_urban rail rail_electric ship" speed="27.78" length="12.17" shape="1653.33,334.19 1665.11,331.11"/>
        <lane id=":42464955_3_1" index="1" disallow="tram rail_urban rail rail_electric ship" speed="27.78" length="12.17" shape="1654.14,337.29 1665.92,334.21"/>
    </edge>
    <edge id=":42464955_5" function="internal">
        <lane id=":42464955_5_0" index="0" disallow="tram rail_urban rail rail_electric ship" speed="7.08" length="4.36" shape="1654.14,337.29 1657.36,337.16 1658.25,337.87"/>
    </edge>
    <edge id=":42464955_6" function="internal">
        <lane id=":42464955_6_0" index="0" disallow="tram rail_urban rail rail_electric ship" speed="3.65" length="2.34" shape="1654.14,337.29 1655.50,337.76 1656.09,338.43"/>
    </edge>
    <edge id=":42464955_7" function="internal">
        <lane id=":42464955_7_0" index="0" speed="7.08" length="9.99" shape="1658.25,337.87 1659.38,338.77 1660.20,342.11 1659.82,347.19"/>
    </edge>
    <edge id=":42464955_8" function="internal">
        <lane id=":42464955_8_0" index="0" speed="3.65" length="2.34" shape="1656.09,338.43 1655.90,339.31 1654.94,340.38"/>
    </edge>
    <edge id=":42464958_0" function="internal">
        <lane id=":42464958_0_0" index="0" disallow="tram rail_urban rail rail_electric ship" speed="8.67" length="11.55" shape="1773.64,312.54 1771.42,313.58 1769.66,315.43 1768.36,318.10 1767.51,321.58"/>
    </edge>
    <edge id=":42464958_1" function="internal">
        <lane id=":42464958_1_0" index="0" disallow="tram rail_urban rail rail_electric ship" speed="27.78" length="15.01" shape="1773.64,312.54 1759.13,316.34"/>
        <lane id=":42464958_1_1" index="1" disallow="tram rail_urban rail rail_electric ship" speed="27.78" length="15.01" shape="1772.84,309.44 1758.31,313.24"/>
    </edge>
    <edge id=":42464958_3" function="internal">
        <lane id=":42464958_3_0" index="0" disallow="tram rail_urban rail rail_electric ship" speed="27.78" length="15.04" shape="1756.69,307.05 1771.24,303.25"/>
        <lane id=":42464958_3_1" index="1" disallow="tram rail_urban rail rail_electric ship" speed="27.78" length="15.04" shape="1757.50,310.15 1772.04,306.35"/>
    </edge>
    <edge id=":42464958_5" function="internal">
        <lane id=":42464958_5_0" index="0" disallow="tram rail_urban rail rail_electric ship" speed="8.18" length="6.43" shape="1757.50,310.15 1762.76,309.64 1763.78,310.16"/>
    </edge>
    <edge id=":42464958_6" function="internal">
        <lane id=":42464958_6_0" index="0" disallow="tram rail_urban rail rail_electric ship" speed="3.65" length="2.34" shape="1757.50,310.15 1758.86,310.61 1759.45,311.29"/>
    </edge>
    <edge id=":42464958_9" function="internal">
        <lane id=":42464958_9_0" index="0" speed="8.18" length="13.20" shape="1763.78,310.16 1766.18,311.38 1767.76,315.36 1767.51,321.58"/>
    </edge>
    <edge id=":42464958_10" function="internal">
        <lane id=":42464958_10_0" index="0" speed="3.65" length="2.34" shape="1759.45,311.29 1759.27,312.16 1758.31,313.24"/>
    </edge>
    <edge id=":42464958_7" function="internal">
        <lane id=":42464958_7_0" index="0" disallow="tram rail_urban rail rail_electric ship" speed="5.79" length="9.15" shape="1764.35,321.07 1764.40,318.38 1763.55,316.70 1761.79,316.02 1759.13,316.34"/>
    </edge>
    <edge id=":42464958_8" function="internal">
        <lane id=":42464958_8_0" index="0" disallow="tram rail_urban rail rail_electric ship" speed="10.53" length="17.37" shape="1764.35,321.07 1765.63,315.17 1767.33,310.75 1769.47,307.81 1772.04,306.35"/>
    </edge>
    <edge id=":42464960_0" function="internal">
        <lane id=":42464960_0_0" index="0" disallow="tram rail_urban rail rail_electric ship" speed="27.78" length="17.35" shape="1920.39,274.55 1903.60,279.03"/>
        <lane id=":42464960_0_1" index="1" disallow="tram rail_urban rail rail_electric ship" speed="27.78" length="17.35" shape="1919.53,271.47 1902.80,275.93"/>
    </edge>
    <edge id=":42464960_2" function="internal">
        <lane id=":42464960_2_0" index="0" disallow="tram rail_urban rail rail_electric ship" speed="7.50" length="4.97" shape="1919.53,271.47 1915.70,271.73 1914.78,271.08"/>
    </edge>
    <edge id=":42464960_10" function="internal">
        <lane id=":42464960_10_0" index="0" speed="7.50" length="11.39" shape="1914.78,271.08 1913.27,270.01 1912.23,266.31 1912.58,260.62"/>
    </edge>
    <edge id=":42464960_3" function="internal">
        <lane id=":42464960_3_0" index="0" disallow="tram rail_urban rail rail_electric ship" speed="9.91" length="15.40" shape="1901.21,269.73 1905.80,268.17 1909.23,266.13 1911.49,263.61 1912.58,260.62"/>
    </edge>
    <edge id=":42464960_4" function="internal">
        <lane id=":42464960_4_0" index="0" disallow="tram rail_urban rail rail_electric ship" speed="27.78" length="17.22" shape="1901.21,269.73 1917.82,265.30"/>
        <lane id=":42464960_4_1" index="1" disallow="tram rail_urban rail rail_electric ship" speed="27.78" length="17.22" shape="1902.01,272.83 1918.68,268.38"/>
    </edge>
    <edge id=":42464960_6" function="internal">
        <lane id=":42464960_6_0" index="0" disallow="tram rail_urban rail rail_electric ship" speed="3.65" length="2.34" shape="1902.01,272.83 1903.37,273.31 1903.95,273.98"/>
    </edge>
    <edge id=":42464960_11" function="internal">
        <lane id=":42464960_11_0" index="0" speed="3.65" length="2.34" shape="1903.95,273.98 1903.77,274.86 1902.80,275.93"/>
    </edge>
    <edge id=":42464960_7" function="internal">
        <lane id=":42464960_7_0" index="0" disallow="tram rail_urban rail rail_electric ship" speed="5.79" length="9.15" shape="1908.77,283.80 1908.86,281.11 1908.02,279.42 1906.27,278.72 1903.60,279.03"/>
    </edge>
    <edge id=":42464960_8" function="internal">
        <lane id=":42464960_8_0" index="0" disallow="tram rail_urban rail rail_electric ship" speed="13.89" length="23.48" shape="1908.77,283.80 1912.58,260.62"/>
    </edge>
    <edge id=":42464960_9" function="internal">
        <lane id=":42464960_9_0" index="0" disallow="tram rail_urban rail rail_electric ship" speed="11.25" length="19.29" shape="1908.77,283.80 1910.24,277.85 1912.39,273.29 1915.20,270.14 1918.68,268.38"/>
    </edge>
    <edge id=":42464964_0" function="internal">