<?xml version="1.0" encoding="UTF-8"?>

<!-- generated on 09/28/18 09:07:57 by Eclipse SUMO polyconvert Version 1.0.0
<configuration xmlns:xsi="http://www.w3.org/2001/XMLSchema-instance" xsi:noNamespaceSchemaLocation="http://sumo.dlr.de/xsd/polyconvertConfiguration.xsd">

    <input>
        <net-file value="C:\Users\isaia\Sumo\2018-09-28-09-07-41\osm.net.xml"/>
        <osm-files value="C:\Users\isaia\Sumo\2018-09-28-09-07-41\osm_bbox.osm.xml"/>
        <osm.keep-full-type value="true"/>
        <type-file value="C:\Program%20Files%20(x86)\Eclipse\Sumo\data\typemap\osmPolyconvert.typ.xml"/>
    </input>

    <output>
        <output-file value="C:\Users\isaia\Sumo\2018-09-28-09-07-41\osm.poly.xml"/>
    </output>

    <processing>
        <poi-layer-offset value="5"/>
    </processing>

    <report>
        <verbose value="true"/>
    </report>

</configuration>
-->

<additional xmlns:xsi="http://www.w3.org/2001/XMLSchema-instance" xsi:noNamespaceSchemaLocation="http://sumo.dlr.de/xsd/additional_file.xsd">
    <location netOffset="-586341.99,-4503613.30" convBoundary="0.00,-6.47,5707.74,7546.64" origBoundary="-73.978144,40.678270,-73.910782,40.746560" projParameter="+proj=utm +zone=18 +ellps=WGS84 +datum=WGS84 +units=m +no_defs"/>

    <poly id="108144504" type="amenity.parking" color="184,184,179" fill="1" layer="-1.00" shape="1391.393540,1471.211811 1390.294139,1479.147981 1389.601669,1484.113575 1388.529587,1491.883536 1454.977838,1501.040092 1474.520006,1389.205774 1465.562930,1387.723163 1478.892028,1308.933196 1406.859515,1295.913531 1399.382075,1340.122855 1400.334828,1341.022288 1400.986677,1341.640612 1459.868686,1351.151845 1463.882674,1364.022336 1459.941346,1387.168184 1433.280411,1382.800640 1418.841674,1475.444190 1391.393540,1471.211811"/>
    <poly id="112168175" type="leisure.park" color="207,245,201" fill="1" layer="-2.00" shape="2543.561436,1281.634836 2544.230619,1277.268571 2549.092076,1245.319056 2553.696111,1215.109511 2561.519640,1163.755474 2589.429929,1142.862259 2777.645800,1174.251222 2783.679478,1181.318053 2762.391635,1311.580421 2754.846069,1317.129804 2574.286007,1286.798886 2553.344798,1283.272971 2543.561436,1281.634836"/>
    <poly id="112168179" type="leisure.pitch" color="207,245,201" fill="1" layer="-2.00" shape="2633.028924,1230.992265 2623.441160,1293.427334 2611.452801,1291.029941 2602.424259,1287.757642 2593.186450,1282.906331 2585.550721,1276.941794 2578.387481,1269.628451 2573.939564,1262.802824 2569.716779,1255.524705 2566.862492,1247.585741 2565.713761,1239.067680 2565.612954,1238.311521 2565.718362,1229.508718 2565.786341,1228.066243 2566.024929,1222.962076 2566.779539,1217.109137 2629.449563,1226.441868 2633.028924,1230.992265"/>
    <poly id="112168179#1" type="sport.baseball" color="79,230,125" fill="1" layer="-2.00" shape="2633.028924,1230.992265 2623.441160,1293.427334 2611.452801,1291.029941 2602.424259,1287.757642 2593.186450,1282.906331 2585.550721,1276.941794 2578.387481,1269.628451 2573.939564,1262.802824 2569.716779,1255.524705 2566.862492,1247.585741 2565.713761,1239.067680 2565.612954,1238.311521 2565.718362,1229.508718 2565.786341,1228.066243 2566.024929,1222.962076 2566.779539,1217.109137 2629.449563,1226.441868 2633.028924,1230.992265"/>
    <poly id="218393821" type="building.yes" color="255,230,230" fill="1" layer="-1.00" shape="1954.843829,1225.427515 1983.422230,1229.897447 1981.389397,1241.652701 1952.669903,1236.970155 1954.843829,1225.427515"/>
    <poly id="226446530" type="landuse.residential" color="235,235,227" fill="1" layer="-3.00" shape="1519.642258,1281.027034 1531.214367,1282.918130 1562.210826,1288.003476 1584.148809,1291.593899 1673.831818,1306.289999 1693.070574,1309.449070 1749.488153,1318.689133 1756.778011,1275.510383 1759.241202,1260.929125 1761.804987,1245.705134 1766.558617,1217.573077 1758.798083,1183.608202 1736.884803,1180.050870 1714.204026,1176.362376 1678.221547,1170.528962 1648.691759,1165.726977 1633.070715,1163.188210 1602.992428,1158.313297 1563.897480,1151.966182 1539.799481,1148.050506 1538.204276,1158.589800 1528.845598,1220.295987 1524.005435,1252.246299 1519.642258,1281.027034"/>
    <poly id="241823049" type="building.yes" color="255,230,230" fill="1" layer="-1.00" shape="1995.192978,674.483543 1991.599616,673.896792 1992.009325,671.425877 1989.951146,671.090533 1989.549887,673.561549 1987.236350,687.589405 1989.471585,687.960161 1990.424223,689.581310 1992.642689,689.940765 1993.435304,685.120739 1994.427956,679.115159 1995.192978,674.483543"/>
    <poly id="241823050" type="building.yes" color="255,230,230" fill="1" layer="-1.00" shape="1915.156941,787.573598 1912.811749,787.212660 1912.138894,786.227670 1910.283020,785.939162 1908.872243,786.599629 1908.762530,787.297763 1907.270379,796.938936 1906.611177,801.205445 1912.904314,802.179513 1913.059972,801.171064 1915.055810,788.260732 1915.156941,787.573598"/>
    <poly id="241823051" type="building.yes" color="255,230,230" fill="1" layer="-1.00" shape="1897.669752,532.337427 1898.718129,531.594935 1897.313345,529.613157 1895.949530,530.585047 1880.659022,527.860987 1879.624855,533.810574 1881.699714,534.168288 1896.881144,536.824442 1896.926693,536.547429 1897.280266,534.531032 1897.669752,532.337427"/>
    <poly id="241823052" type="building.yes" color="255,230,230" fill="1" layer="-1.00" shape="1812.469393,517.314626 1805.324612,516.152907 1804.562505,516.987627 1804.452799,517.685762 1802.073045,532.334600 1803.599172,533.351911 1803.172565,533.691015 1802.488581,537.912828 1808.452385,538.882891 1809.227333,534.118152 1809.907042,533.104819 1810.918965,526.888507 1812.469393,517.314626"/>
    <poly id="241823053" type="building.yes" color="255,230,230" fill="1" layer="-1.00" shape="1879.580232,740.321816 1880.300289,735.911700 1880.662989,735.971520 1882.696023,723.483507 1872.312355,721.794742 1869.559289,738.692875 1867.492673,738.357465 1867.028219,741.171904 1865.651363,749.648723 1879.797066,751.948384 1881.638397,740.657129 1879.580232,740.321816"/>
    <poly id="241823054" type="building.yes" color="255,230,230" fill="1" layer="-1.00" shape="1867.028219,741.171904 1865.923216,740.992245 1866.698053,736.238610 1862.547920,735.567592 1859.977069,751.357674 1861.208559,751.561038 1861.996431,752.824943 1864.569133,753.244079 1865.222953,752.274852 1865.651363,749.648723 1867.028219,741.171904"/>
    <poly id="241823055" type="building.yes" color="255,230,230" fill="1" layer="-1.00" shape="1858.471912,653.940311 1857.533893,659.624592 1865.766379,660.988022 1867.866686,661.334933 1868.067097,660.116073 1878.728790,661.885848 1878.783580,661.542331 1881.837058,662.044898 1882.511572,657.911795 1882.005476,657.828068 1870.162710,655.877726 1858.471912,653.940311"/>
    <poly id="241823056" type="building.yes" color="255,230,230" fill="1" layer="-1.00" shape="1864.165565,724.606743 1864.740125,721.060868 1860.573082,720.389650 1860.336103,721.841221 1859.357588,721.685271 1859.795107,719.003738 1849.293389,717.291399 1847.878636,717.574357 1847.450362,720.189387 1848.655334,721.202894 1848.518298,722.067237 1864.165565,724.606743"/>
    <poly id="241823058" type="building.yes" color="255,230,230" fill="1" layer="-1.00" shape="1904.227626,580.754268 1898.439478,579.941644 1897.008055,590.160851 1897.164655,590.495778 1897.631283,591.056431 1898.277875,591.408282 1898.631869,591.490204 1899.003423,591.516823 1899.715367,591.347647 1900.038593,591.173853 1900.560267,590.658249 1902.804645,590.973575 1904.172043,581.164388 1904.227626,580.754268"/>
    <poly id="241823060" type="building.yes" color="255,230,230" fill="1" layer="-1.00" shape="1927.200943,734.181989 1926.610746,734.063952 1927.597142,729.290633 1922.403797,728.218604 1920.045881,739.592527 1919.076347,739.392267 1918.430593,742.526511 1917.958435,742.432082 1916.765949,748.191048 1919.008431,748.661788 1917.538288,755.738614 1924.645328,757.210861 1927.299652,744.363871 1925.183659,743.916836 1927.200943,734.181989"/>
    <poly id="241823063" type="building.yes" color="255,230,230" fill="1" layer="-1.00" shape="1698.635013,559.273843 1717.049935,562.223313 1718.784119,551.397048 1713.300938,550.521572 1716.285232,531.916401 1718.664052,532.299878 1719.603687,526.471274 1713.597611,525.500781 1712.621283,531.573198 1706.412662,530.578105 1705.545511,535.996789 1708.109977,536.404668 1706.047636,549.247640 1700.387388,548.336768 1698.635013,559.273843"/>
    <poly id="241823065" type="building.yes" color="255,230,230" fill="1" layer="-1.00" shape="1869.681137,788.909521 1871.435346,789.219016 1872.821454,781.386235 1859.572186,779.041721 1858.738601,783.761353 1858.226987,784.854393 1851.353668,783.629233 1851.038349,782.426452 1851.826250,777.994934 1838.661340,775.662563 1836.016066,790.608002 1851.264056,793.309277 1851.490077,792.068516 1863.499522,794.198449 1862.185773,801.632412 1867.279650,802.536686 1869.681137,788.909521"/>
    <poly id="241823068" type="building.yes" color="255,230,230" fill="1" layer="-1.00" shape="1853.010506,728.093564 1846.878119,727.099253 1845.764281,727.663339 1845.244783,730.843498 1844.142838,731.829608 1843.659251,734.832558 1844.096831,735.703725 1843.659318,738.385259 1843.288167,738.325340 1842.367069,744.009824 1842.738220,744.069742 1841.990463,748.679372 1842.724314,748.799109 1843.488684,749.907303 1846.491558,750.398153 1847.815053,749.259243 1849.527416,749.534930 1852.079895,733.866751 1853.010506,728.093564"/>
    <poly id="241823071" type="building.yes" color="255,230,230" fill="1" layer="-1.00" shape="1885.353390,795.024278 1888.136407,795.523636 1887.320893,800.143559 1884.866775,799.703620 1883.789063,805.763713 1898.058768,808.286930 1899.118535,802.315443 1897.421859,798.587149 1898.853014,790.521761 1898.625387,790.474648 1899.540589,785.289698 1893.249151,784.171333 1892.802338,783.366667 1892.142291,782.725999 1891.327767,782.283336 1890.425708,782.094982 1889.960816,782.100561 1889.054272,782.289629 1888.246097,782.735216 1887.595969,783.393623 1887.346297,783.779233 1887.274080,784.166952 1885.353390,795.024278"/>
    <poly id="241823074" type="building.yes" color="255,230,230" fill="1" layer="-1.00" shape="1998.004732,799.738629 1996.412145,797.210587 1967.658053,792.449908 1966.938081,796.848916 1950.920376,794.204864 1950.756658,795.179910 1946.100742,794.402910 1943.551379,809.793546 1964.081568,813.190681 1964.664356,809.667114 1967.257101,809.820072 1967.300275,809.032329 1979.361950,811.029846 1978.778891,814.575613 1977.387125,814.348118 1976.740691,818.248402 1978.393883,818.523415 1978.111464,820.240896 1976.466723,819.965984 1975.765892,824.176482 1977.410633,824.451394 1976.609325,829.293523 1977.629943,829.461092 1976.591769,835.743689 1992.288799,838.339576 1993.326987,832.056981 1998.004732,799.738629"/>
    <poly id="241823077" type="building.yes" color="255,230,230" fill="1" layer="-1.00" shape="1862.384861,833.253812 1861.660775,832.312627 1861.807976,831.304076 1862.255042,831.376000 1862.676976,828.583260 1862.297379,828.523240 1862.783870,825.276077 1863.335898,825.049488 1863.592939,823.331702 1862.565835,822.286998 1835.552909,818.224745 1834.905925,817.195661 1832.906535,816.894365 1831.168339,818.083864 1830.819817,820.388981 1831.182514,820.448798 1830.861716,822.554405 1830.372399,822.481982 1829.739252,826.693295 1830.144200,826.753614 1829.969808,827.917273 1829.649230,827.869058 1829.291073,830.273980 1830.477298,832.153233 1832.527383,832.455130 1833.172888,832.185241 1839.550639,833.149150 1839.486084,833.603573 1851.288431,835.375758 1851.334241,835.076543 1858.015796,836.077383 1857.969854,836.387699 1860.416434,836.749824 1862.026693,835.658732 1862.384861,833.253812"/>
    <poly id="241823080" type="building.yes" color="255,230,230" fill="1" layer="-1.00" shape="2011.895845,663.602263 2012.423868,660.422216 2015.038715,660.853006 2015.869620,660.629746 2016.252394,660.423359 2016.601896,660.172167 2017.175728,659.535067 2017.548338,658.762347 2017.685263,657.909108 2017.665063,657.475882 2017.446678,656.651721 2017.248493,656.260786 2016.698564,655.599214 2015.994415,655.113441 2015.169320,654.848274 2013.052117,654.501120 2013.444009,652.107709 2018.774061,651.638222 2021.152829,652.021796 2022.983831,640.908084 2020.309957,640.465487 2020.492041,639.368536 2016.316645,638.686030 2017.054748,634.187323 2000.834160,631.518554 2000.624615,632.792813 1995.133468,631.883726 1995.334297,630.631567 1989.573132,629.685965 1986.293739,649.597596 1984.868140,649.369698 1984.302893,652.837961 1985.627219,653.053552 1984.625594,659.103435 2006.716723,662.752389 2011.895845,663.602263"/>
    <poly id="241823081" type="building.yes" color="255,230,230" fill="1" layer="-1.00" shape="2005.750731,668.647263 2004.740112,674.741446 2018.725234,677.050560 2019.727547,670.945178 2005.750731,668.647263"/>
    <poly id="241823082" type="building.yes" color="255,230,230" fill="1" layer="-1.00" shape="1983.836314,547.816794 1982.068863,558.564897 1988.007148,559.545905 1989.783057,548.797904 1983.836314,547.816794"/>
    <poly id="241823083" type="building.yes" color="255,230,230" fill="1" layer="-1.00" shape="1874.787968,563.906650 1873.899708,569.669235 1884.976260,571.388432 1885.864529,565.625848 1874.787968,563.906650"/>
    <poly id="241823084" type="building.yes" color="255,230,230" fill="1" layer="-1.00" shape="1870.700165,823.360617 1868.454480,836.678772 1874.653847,837.718307 1876.890962,824.411154 1870.700165,823.360617"/>
    <poly id="241823085" type="building.yes" color="255,230,230" fill="1" layer="-1.00" shape="1948.855223,586.180772 1948.545341,588.075563 1946.906021,598.003634 1946.833667,598.402453 1952.139331,599.275992 1954.160896,587.054313 1948.855223,586.180772"/>
    <poly id="241823086" type="building.yes" color="255,230,230" fill="1" layer="-1.00" shape="1942.488901,587.082079 1940.849589,597.010152 1946.906021,598.003634 1948.545341,588.075563 1942.488901,587.082079"/>
    <poly id="241823087" type="building.yes" color="255,230,230" fill="1" layer="-1.00" shape="1935.414553,833.100232 1933.416441,845.488730 1939.439133,846.459606 1941.437255,834.071110 1935.414553,833.100232"/>
    <poly id="241823088" type="building.yes" color="255,230,230" fill="1" layer="-1.00" shape="1864.940891,621.620967 1863.968668,627.338147 1876.595255,629.475424 1877.567488,623.758245 1864.940891,621.620967"/>
    <poly id="241823089" type="building.yes" color="255,230,230" fill="1" layer="-1.00" shape="1973.463402,753.428127 1971.297130,765.736900 1977.546587,766.832627 1979.704419,754.523755 1973.463402,753.428127"/>
    <poly id="241823090" type="building.yes" color="255,230,230" fill="1" layer="-1.00" shape="1940.239491,705.915376 1938.208991,717.470822 1943.024720,718.316329 1945.055227,706.760884 1940.239491,705.915376"/>
    <poly id="241823091" type="building.yes" color="255,230,230" fill="1" layer="-1.00" shape="1876.663908,551.838655 1875.712009,557.977958 1886.788579,559.697157 1887.740355,553.568956 1877.043519,551.898676 1876.663908,551.838655"/>
    <poly id="241823092" type="building.yes" color="255,230,230" fill="1" layer="-1.00" shape="1933.790022,539.627842 1931.670507,551.559703 1936.730748,552.463620 1938.858722,540.531860 1933.790022,539.627842"/>
    <poly id="241823093" type="building.yes" color="255,230,230" fill="1" layer="-1.00" shape="1968.062821,710.798097 1966.276672,720.990873 1972.458697,722.074690 1974.244854,711.881916 1968.062821,710.798097"/>
    <poly id="241823094" type="building.yes" color="255,230,230" fill="1" layer="-1.00" shape="1989.783057,548.797904 1988.007148,559.545905 1993.877960,560.515012 1995.653877,549.767013 1989.783057,548.797904"/>
    <poly id="241823095" type="building.yes" color="255,230,230" fill="1" layer="-1.00" shape="1958.848509,590.152048 1957.200329,600.113319 1962.261326,600.950650 1963.901063,590.989280 1958.848509,590.152048"/>
    <poly id="241823096" type="building.yes" color="255,230,230" fill="1" layer="-1.00" shape="2000.492498,596.298339 1998.780488,606.647420 2005.207931,607.711977 2006.919949,597.362898 2000.492498,596.298339"/>
    <poly id="241823097" type="building.yes" color="255,230,230" fill="1" layer="-1.00" shape="1974.244854,711.881916 1972.458697,722.074690 1978.649171,723.158613 1980.435204,712.976941 1974.244854,711.881916"/>
    <poly id="241823098" type="building.yes" color="255,230,230" fill="1" layer="-1.00" shape="1928.777909,743.715311 1926.198985,758.039789 1931.199934,758.943001 1933.778867,744.618525 1928.777909,743.715311"/>
    <poly id="241823099" type="building.yes" color="255,230,230" fill="1" layer="-1.00" shape="1929.484537,832.152665 1927.486435,844.541164 1933.416441,845.488730 1935.414553,833.100232 1929.484537,832.152665"/>
    <poly id="241823100" type="building.yes" color="255,230,230" fill="1" layer="-1.00" shape="1983.949047,672.640062 1981.635520,686.667920 1987.236350,687.589405 1989.549887,673.561549 1983.949047,672.640062"/>
    <poly id="241823101" type="building.yes" color="255,230,230" fill="1" layer="-1.00" shape="1863.014137,632.988925 1862.051026,638.650702 1874.677594,640.787976 1875.640715,635.126199 1863.014137,632.988925"/>
    <poly id="241823102" type="building.yes" color="255,230,230" fill="1" layer="-1.00" shape="1936.563580,759.906039 1941.227178,760.749737 1943.806262,746.414163 1939.134073,745.581464 1936.563580,759.906039"/>
    <poly id="241823103" type="building.yes" color="255,230,230" fill="1" layer="-1.00" shape="1869.895458,581.612031 1868.953600,587.618227 1882.122266,589.662030 1883.064135,583.655835 1869.895458,581.612031"/>
    <poly id="241823104" type="building.yes" color="255,230,230" fill="1" layer="-1.00" shape="1877.567488,623.758245 1878.612864,617.575644 1865.986257,615.438364 1864.940891,621.620967 1877.567488,623.758245"/>
    <poly id="241823105" type="building.yes" color="255,230,230" fill="1" layer="-1.00" shape="1720.177100,550.814048 1718.615898,562.019838 1723.712193,562.735299 1725.273403,551.529510 1720.177100,550.814048"/>
    <poly id="241823106" type="building.yes" color="255,230,230" fill="1" layer="-1.00" shape="1857.488522,692.619750 1857.434129,692.929966 1855.213511,705.560084 1860.779880,706.536576 1863.046450,693.596144 1857.488522,692.619750"/>
    <poly id="241823107" type="building.yes" color="255,230,230" fill="1" layer="-1.00" shape="1950.046218,542.163654 1947.745658,555.103658 1953.607104,556.150338 1955.907805,543.199235 1950.046218,542.163654"/>
    <poly id="241823108" type="building.yes" color="255,230,230" fill="1" layer="-1.00" shape="1922.842131,789.463497 1921.203676,800.035512 1928.711657,801.190567 1930.341540,790.629553 1922.842131,789.463497"/>
    <poly id="241823109" type="building.yes" color="255,230,230" fill="1" layer="-1.00" shape="1953.607104,556.150338 1959.122871,557.126299 1961.423450,544.186298 1955.907805,543.199235 1953.607104,556.150338"/>
    <poly id="241823110" type="building.yes" color="255,230,230" fill="1" layer="-1.00" shape="1911.103169,701.283609 1908.864374,714.013419 1914.801882,715.049873 1917.040686,702.320065 1911.103169,701.283609"/>
    <poly id="241823111" type="building.yes" color="255,230,230" fill="1" layer="-1.00" shape="1882.424720,783.309979 1880.504037,794.167306 1885.353390,795.024278 1887.274080,784.166952 1882.424720,783.309979"/>
    <poly id="241823112" type="building.yes" color="255,230,230" fill="1" layer="-1.00" shape="1933.778867,744.618525 1931.199934,758.943001 1936.563580,759.906039 1939.134073,745.581464 1933.778867,744.618525"/>
    <poly id="241823113" type="building.yes" color="255,230,230" fill="1" layer="-1.00" shape="1939.439133,846.459606 1945.824519,847.490311 1947.822651,835.101817 1941.437255,834.071110 1939.439133,846.459606"/>
    <poly id="241823114" type="building.yes" color="255,230,230" fill="1" layer="-1.00" shape="1949.654508,671.788155 1947.878020,682.591669 1953.487307,683.513230 1955.272254,672.709817 1949.654508,671.788155"/>
    <poly id="241823115" type="building.yes" color="255,230,230" fill="1" layer="-1.00" shape="1727.674959,534.316307 1727.158160,537.984999 1725.273403,551.529510 1723.712193,562.735299 1729.829541,563.584997 1733.792330,535.166008 1727.674959,534.316307"/>
    <poly id="241823116" type="building.yes" color="255,230,230" fill="1" layer="-1.00" shape="1945.055227,706.760884 1943.024720,718.316329 1948.135547,719.220858 1950.166194,707.654314 1945.055227,706.760884"/>
    <poly id="241823117" type="building.yes" color="255,230,230" fill="1" layer="-1.00" shape="1979.704419,754.523755 1977.546587,766.832627 1984.200859,767.999788 1986.358702,755.690917 1979.704419,754.523755"/>
    <poly id="241823118" type="building.yes" color="255,230,230" fill="1" layer="-1.00" shape="1878.667489,695.502542 1876.310060,708.974797 1881.345111,709.856175 1883.710868,696.395123 1878.667489,695.502542"/>
    <poly id="241823119" type="building.yes" color="255,230,230" fill="1" layer="-1.00" shape="1877.482671,782.429703 1875.561995,793.287031 1880.504037,794.167306 1882.424720,783.309979 1877.482671,782.429703"/>
    <poly id="241823120" type="building.yes" color="255,230,230" fill="1" layer="-1.00" shape="1875.712009,557.977958 1874.787968,563.906650 1885.864529,565.625848 1886.788579,559.697157 1875.712009,557.977958"/>
    <poly id="241823121" type="building.yes" color="255,230,230" fill="1" layer="-1.00" shape="1977.670253,546.799775 1975.902811,557.547879 1982.068863,558.564897 1983.836314,547.816794 1977.670253,546.799775"/>
    <poly id="241823122" type="building.yes" color="255,230,230" fill="1" layer="-1.00" shape="1940.205225,805.479420 1943.621733,806.008534 1945.535104,793.641236 1942.118591,793.112121 1940.205225,805.479420"/>
    <poly id="241823124" type="building.yes" color="255,230,230" fill="1" layer="-1.00" shape="1905.191000,700.247459 1902.960665,712.977371 1908.864374,714.013419 1911.103169,701.283609 1905.191000,700.247459"/>
    <poly id="241823125" type="building.yes" color="255,230,230" fill="1" layer="-1.00" shape="1807.265743,575.483803 1810.750496,575.969254 1813.134158,558.855780 1809.649398,558.370327 1807.265743,575.483803"/>
    <poly id="241823127" type="building.yes" color="255,230,230" fill="1" layer="-1.00" shape="2002.086651,550.387541 2000.246422,561.567760 2006.479939,562.596703 2008.320178,551.416486 2002.086651,550.387541"/>
    <poly id="241823128" type="building.yes" color="255,230,230" fill="1" layer="-1.00" shape="1944.370275,541.152489 1942.069725,554.092495 1947.745658,555.103658 1950.046218,542.163654 1944.370275,541.152489"/>
    <poly id="241823129" type="building.yes" color="255,230,230" fill="1" layer="-1.00" shape="1936.977959,668.173567 1934.955648,680.461854 1941.669816,681.574175 1943.700589,669.285989 1936.977959,668.173567"/>
    <poly id="241823130" type="building.yes" color="255,230,230" fill="1" layer="-1.00" shape="1864.787562,822.368900 1862.550469,835.676056 1868.454480,836.678772 1870.700165,823.360617 1864.787562,822.368900"/>
    <poly id="241823131" type="building.yes" color="255,230,230" fill="1" layer="-1.00" shape="1876.890962,824.411154 1874.653847,837.718307 1880.423049,838.686124 1882.668623,825.379073 1876.890962,824.411154"/>
    <poly id="241823132" type="building.yes" color="255,230,230" fill="1" layer="-1.00" shape="1918.404137,665.110631 1916.373406,677.398823 1922.471894,678.403889 1924.502635,666.115698 1918.404137,665.110631"/>
    <poly id="241823133" type="building.yes" color="255,230,230" fill="1" layer="-1.00" shape="1989.259020,850.771300 1990.235675,844.687813 1977.177868,842.600713 1976.201354,848.673102 1989.259020,850.771300"/>
    <poly id="241823134" type="building.yes" color="255,230,230" fill="1" layer="-1.00" shape="1863.968668,627.338147 1863.014137,632.988925 1875.640715,635.126199 1876.595255,629.475424 1863.968668,627.338147"/>
    <poly id="241823135" type="building.yes" color="255,230,230" fill="1" layer="-1.00" shape="2004.740112,674.741446 2003.765408,680.658421 2017.750520,682.967534 2018.725234,677.050560 2004.740112,674.741446"/>
    <poly id="241823136" type="building.yes" color="255,230,230" fill="1" layer="-1.00" shape="1924.930450,637.232888 1939.378849,639.680583 1941.460197,627.404101 1927.011906,624.945302 1924.930450,637.232888"/>
    <poly id="241823137" type="building.yes" color="255,230,230" fill="1" layer="-1.00" shape="1917.128477,618.133213 1916.306862,623.263761 1914.619138,633.713067 1920.211037,634.678803 1922.010206,624.097597 1922.787859,619.110855 1917.128477,618.133213"/>
    <poly id="241823138" type="building.yes" color="255,230,230" fill="1" layer="-1.00" shape="1996.864015,769.882361 2002.565258,770.882770 2004.668467,758.906320 1998.967215,757.905910 1996.864015,769.882361"/>
    <poly id="241823139" type="building.yes" color="255,230,230" fill="1" layer="-1.00" shape="1882.668623,825.379073 1880.423049,838.686124 1886.706651,839.748875 1888.952237,826.441826 1882.668623,825.379073"/>
    <poly id="241823140" type="building.yes" color="255,230,230" fill="1" layer="-1.00" shape="1924.502635,666.115698 1922.471894,678.403889 1928.730673,679.433070 1930.761424,667.144881 1924.502635,666.115698"/>
    <poly id="241823141" type="building.yes" color="255,230,230" fill="1" layer="-1.00" shape="1962.167567,709.762102 1960.381558,719.943779 1966.276672,720.990873 1968.062821,710.798097 1962.167567,709.762102"/>
    <poly id="241823142" type="building.yes" color="255,230,230" fill="1" layer="-1.00" shape="1837.190670,569.977114 1850.820062,572.370499 1851.844566,566.520712 1851.026456,566.377770 1838.223614,564.127426 1837.190670,569.977114"/>
    <poly id="241823143" type="building.yes" color="255,230,230" fill="1" layer="-1.00" shape="2012.974441,582.180518 2011.189525,592.972817 2031.846915,596.382738 2033.631860,585.590444 2012.974441,582.180518"/>
    <poly id="241823144" type="building.yes" color="255,230,230" fill="1" layer="-1.00" shape="1870.791637,575.893948 1869.895458,581.612031 1883.064135,583.655835 1883.951873,577.937654 1872.875330,576.218458 1870.791637,575.893948"/>
    <poly id="241823145" type="building.yes" color="255,230,230" fill="1" layer="-1.00" shape="1786.652670,561.206000 1785.127936,572.179066 1791.203019,573.028313 1792.727893,562.044148 1786.652670,561.206000"/>
    <poly id="241823146" type="building.yes" color="255,230,230" fill="1" layer="-1.00" shape="1994.334930,595.281406 1992.631379,605.630588 1998.780488,606.647420 2000.492498,596.298339 1994.334930,595.281406"/>
    <poly id="241823147" type="building.yes" color="255,230,230" fill="1" layer="-1.00" shape="1967.424925,752.357118 1965.258531,764.676993 1971.297130,765.736900 1973.463402,753.428127 1967.424925,752.357118"/>
    <poly id="241823148" type="building.yes" color="255,230,230" fill="1" layer="-1.00" shape="1962.547493,544.188561 1959.782018,559.976297 1966.116023,561.084116 1968.881511,545.296383 1962.547493,544.188561"/>
    <poly id="241823149" type="building.yes" color="255,230,230" fill="1" layer="-1.00" shape="1986.358702,755.690917 1984.200859,767.999788 1990.652721,769.131240 1992.819024,756.822472 1986.358702,755.690917"/>
    <poly id="241823150" type="building.yes" color="255,230,230" fill="1" layer="-1.00" shape="1838.785192,539.609371 1837.854969,545.349257 1852.254189,547.685170 1853.184422,541.945287 1838.937037,539.633379 1838.785192,539.609371"/>
    <poly id="241823151" type="building.yes" color="255,230,230" fill="1" layer="-1.00" shape="1931.816397,582.658664 1931.388351,585.251488 1929.749054,595.179563 1935.307838,596.089406 1937.375059,583.579609 1931.816397,582.658664"/>
    <poly id="241823153" type="building.yes" color="255,230,230" fill="1" layer="-1.00" shape="1905.410896,657.562158 1902.383756,674.046242 1908.868720,675.244627 1911.896006,658.749445 1905.410896,657.562158"/>
    <poly id="241823155" type="building.yes" color="255,230,230" fill="1" layer="-1.00" shape="1893.024272,739.082670 1890.644529,753.720386 1895.806829,754.558878 1898.186583,739.921164 1893.024272,739.082670"/>
    <poly id="241823156" type="building.yes" color="255,230,230" fill="1" layer="-1.00" shape="1710.757857,501.264364 1709.149090,511.492599 1715.349539,512.465393 1716.958183,502.248260 1710.757857,501.264364"/>
    <poly id="241823157" type="building.yes" color="255,230,230" fill="1" layer="-1.00" shape="1963.901063,590.989280 1962.261326,600.950650 1967.356124,601.788386 1969.004185,591.838218 1963.901063,590.989280"/>
    <poly id="241823158" type="building.yes" color="255,230,230" fill="1" layer="-1.00" shape="1883.710868,696.395123 1881.345111,709.856175 1887.105434,710.868298 1889.471201,697.407247 1883.710868,696.395123"/>
    <poly id="241823159" type="building.yes" color="255,230,230" fill="1" layer="-1.00" shape="1971.529542,545.783062 1969.753659,556.531067 1975.902811,557.547879 1977.670253,546.799775 1971.529542,545.783062"/>
    <poly id="241823160" type="building.yes" color="255,230,230" fill="1" layer="-1.00" shape="1977.832015,629.846078 1974.664354,648.182531 1980.095943,649.124202 1983.263618,630.787751 1977.832015,629.846078"/>
    <poly id="241823161" type="building.yes" color="255,230,230" fill="1" layer="-1.00" shape="2014.313196,574.080745 2012.974441,582.180518 2033.631860,585.590444 2034.962188,577.490574 2014.313196,574.080745"/>
    <poly id="241823162" type="building.yes" color="255,230,230" fill="1" layer="-1.00" shape="1834.616219,796.042553 1831.798351,815.560046 1849.372322,818.100200 1852.190367,798.571613 1834.616219,796.042553"/>
    <poly id="241823163" type="building.yes" color="255,230,230" fill="1" layer="-1.00" shape="1873.899708,569.669235 1872.875330,576.218458 1883.951873,577.937654 1884.976260,571.388432 1873.899708,569.669235"/>
    <poly id="241823164" type="building.yes" color="255,230,230" fill="1" layer="-1.00" shape="1863.046450,693.596144 1860.779880,706.536576 1865.722113,707.405739 1867.997142,694.465408 1863.046450,693.596144"/>